#------------------------------------------------------------------------------
#$Date: 2022-12-06 01:53:14 +0200 (Tue, 06 Dec 2022) $
#$Revision: 279709 $
#$URL: file:///home/coder/svn-repositories/cod/cif/7/71/18/7711870.cif $
#------------------------------------------------------------------------------
#
# This file is available in the Crystallography Open Database (COD),
# http://www.crystallography.net/
#
# All data on this site have been placed in the public domain by the
# contributors.
#
data_7711870
loop_
_publ_author_name
'Cao, Xiao-Qin'
'Wu, Wei-Peng'
'Li, Qiang'
'Zheng, Teng-Fei'
'chen, yongqiang'
'Chen, Jing-Lin'
'Liu, Sui-Jun'
'Wen, He-Rui'
_publ_section_title
;
 Selective recognition of Hg2+ ion in aqueous solution by CdII-based
 metal-organic framework with good stability and vacant coordination sites
;
_journal_name_full               'Dalton Transactions'
_journal_paper_doi               10.1039/D2DT03386K
_journal_year                    2022
_chemical_formula_sum            'C18 H8 Cd N6 O6 S2'
_chemical_formula_weight         580.82
_space_group_crystal_system      triclinic
_space_group_IT_number           2
_space_group_name_Hall           '-P 1'
_space_group_name_H-M_alt        'P -1'
_atom_sites_solution_hydrogens   geom
_audit_creation_method           SHELXL-2017/1
_audit_update_record
;
2022-08-22 deposited with the CCDC.	2022-12-05 downloaded from the CCDC.
;
_cell_angle_alpha                105.4870(10)
_cell_angle_beta                 97.6220(10)
_cell_angle_gamma                99.9180(10)
_cell_formula_units_Z            2
_cell_length_a                   10.1318(3)
_cell_length_b                   10.4983(3)
_cell_length_c                   10.9116(3)
_cell_measurement_reflns_used    9932
_cell_measurement_temperature    293(2)
_cell_measurement_theta_max      27.471
_cell_measurement_theta_min      3.220
_cell_volume                     1082.09(5)
_computing_cell_refinement       'Bruker SMART'
_computing_data_collection       'Bruker SMART'
_computing_data_reduction        'Bruker SAINT'
_computing_molecular_graphics    'Bruker SHELXTL'
_computing_publication_material  'Bruker SHELXTL'
_computing_structure_refinement  'SHELXL-2017/1 (Sheldrick, 2017)'
_computing_structure_solution    'SHELXT 2014/5 (Sheldrick, 2014)'
_diffrn_ambient_temperature      293(2)
_diffrn_measured_fraction_theta_full 0.994
_diffrn_measured_fraction_theta_max 0.994
_diffrn_measurement_device_type  'CCD area detector'
_diffrn_measurement_method       'phi and omega scans'
_diffrn_radiation_type           MoK\a
_diffrn_radiation_wavelength     0.71073
_diffrn_reflns_av_R_equivalents  0.0177
_diffrn_reflns_av_unetI/netI     0.0170
_diffrn_reflns_Laue_measured_fraction_full 0.994
_diffrn_reflns_Laue_measured_fraction_max 0.994
_diffrn_reflns_limit_h_max       12
_diffrn_reflns_limit_h_min       -12
_diffrn_reflns_limit_k_max       12
_diffrn_reflns_limit_k_min       -12
_diffrn_reflns_limit_l_max       12
_diffrn_reflns_limit_l_min       -12
_diffrn_reflns_number            13525
_diffrn_reflns_point_group_measured_fraction_full 0.994
_diffrn_reflns_point_group_measured_fraction_max 0.994
_diffrn_reflns_theta_full        25.009
_diffrn_reflns_theta_max         25.009
_diffrn_reflns_theta_min         3.220
_diffrn_source                   'sealed tube'
_exptl_absorpt_coefficient_mu    1.251
_exptl_crystal_colour            yellow
_exptl_crystal_density_diffrn    1.783
_exptl_crystal_description       block
_exptl_crystal_F_000             572
_exptl_crystal_size_max          0.22
_exptl_crystal_size_mid          0.21
_exptl_crystal_size_min          0.2
_refine_diff_density_max         2.419
_refine_diff_density_min         -0.858
_refine_diff_density_rms         0.118
_refine_ls_extinction_method     none
_refine_ls_goodness_of_fit_ref   1.086
_refine_ls_hydrogen_treatment    constr
_refine_ls_matrix_type           full
_refine_ls_number_parameters     298
_refine_ls_number_reflns         3779
_refine_ls_number_restraints     12
_refine_ls_restrained_S_all      1.088
_refine_ls_R_factor_all          0.0382
_refine_ls_R_factor_gt           0.0357
_refine_ls_shift/su_max          0.000
_refine_ls_shift/su_mean         0.000
_refine_ls_structure_factor_coef Fsqd
_refine_ls_weighting_details
'w=1/[\s^2^(Fo^2^)+(0.0540P)^2^+4.3043P] where P=(Fo^2^+2Fc^2^)/3'
_refine_ls_weighting_scheme      calc
_refine_ls_wR_factor_gt          0.1074
_refine_ls_wR_factor_ref         0.1099
_reflns_Friedel_coverage         0.000
_reflns_number_gt                3533
_reflns_number_total             3779
_reflns_threshold_expression     'I > 2\s(I)'
_cod_data_source_file            d2dt03386k2.cif
_cod_data_source_block           1_a
_cod_database_code               7711870
_shelx_shelxl_version_number     2017/1
_shelx_space_group_comment
;
The symmetry employed for this shelxl refinement is uniquely defined
by the following loop, which should always be used as a source of
symmetry information in preference to the above space-group names.
They are only intended as comments.
;
_shelx_res_file
;
TITL 1_a.res in P-1
    1_a.res
    created by SHELXL-2017/1 at 20:39:45 on 29-Mar-2022
REM Old TITL 1 in P1
REM SHELXT solution in P-1
REM R1 0.104, Rweak 0.006, Alpha 0.054, Orientation as input
REM Formula found by SHELXT: C20 N5 O4 S2 Cd
CELL 0.71073 10.1318 10.4983 10.9116 105.487 97.622 99.918
ZERR 2 0.0003 0.0003 0.0003 0.001 0.001 0.001
LATT 1
SFAC C H N O S Cd
UNIT 36 16 12 12 4 2
ISOR 0.001 0.002 O1W O2W

L.S. 10
PLAN  20
BOND $H
LIST 6
fmap 2
acta
OMIT -3 50.02
REM <olex2.extras>
REM <HklSrc "%.\\1_a.hkl">
REM </olex2.extras>

WGHT    0.054000    4.304300
FVAR       0.64367
CD1   6    0.126622    0.622574   -0.052423    11.00000    0.02375    0.02084 =
         0.02645    0.00916    0.00055    0.00728
O1    4    0.113106    0.831330   -0.058989    11.00000    0.04281    0.02838 =
         0.07803    0.02650    0.02731    0.01320
C1    1    0.962527    0.411020    0.653017    11.00000    0.03687    0.03716 =
         0.03984    0.00919    0.00151    0.01270
AFIX  43
H1    2    1.005213    0.339959    0.655968    11.00000   -1.20000
AFIX   0
N1    3    0.994601    0.535529    0.743535    11.00000    0.03009    0.03501 =
         0.03147    0.01087   -0.00057    0.00656
S1    5    0.548624    0.800338    0.747565    11.00000    0.04820    0.07040 =
         0.02496   -0.00199    0.00127    0.02527
S2    5    0.133697    1.107037   -0.066463    11.00000    0.02637    0.02452 =
         0.04864    0.01432    0.01329    0.00925
O2    4    0.306301    0.797713   -0.115026    11.00000    0.04467    0.03356 =
         0.10861    0.03208    0.03261    0.02056
C2    1    0.910568    0.605278    0.704903    11.00000    0.02912    0.04162 =
         0.03105    0.01370   -0.00153    0.00916
N2    3    0.825935    0.530691    0.592463    11.00000    0.02510    0.04041 =
         0.02512    0.01044   -0.00035    0.00771
O4    4    0.271553    1.470062   -0.088138    11.00000    0.03922    0.02520 =
         0.04586    0.01634    0.01938    0.01382
C4    1    0.721691    0.573984    0.523311    11.00000    0.02275    0.04166 =
         0.02599    0.01145    0.00167    0.00701
N4    3    0.252177    0.697734    0.154868    11.00000    0.02974    0.03473 =
         0.02956    0.01011   -0.00230    0.00710
N3    3    0.413769    0.707775    0.314720    11.00000    0.02836    0.03479 =
         0.02640    0.00673   -0.00228    0.00723
O3    4    0.079154    1.386013   -0.037721    11.00000    0.03258    0.03200 =
         0.05191    0.01753    0.01685    0.01508
C3    1    0.859320    0.406662    0.558442    11.00000    0.03582    0.03983 =
         0.03237    0.00185   -0.00118    0.01058
AFIX  43
H3    2    0.819243    0.334166    0.485248    11.00000   -1.20000
AFIX   0
C5    1    0.647230    0.661987    0.591926    11.00000    0.02323    0.04117 =
         0.02220    0.00650   -0.00111    0.00079
N5    3    0.659657    0.708870    0.721029    11.00000    0.03684    0.05731 =
         0.02209    0.00607   -0.00114    0.01242
C6    1    0.690668    0.531616    0.391211    11.00000    0.02509    0.05082 =
         0.02538    0.00883    0.00461    0.01192
AFIX  43
H6    2    0.737341    0.472015    0.345133    11.00000   -1.20000
AFIX   0
N6    3    0.480644    0.789330    0.601851    11.00000    0.03772    0.05390 =
         0.02971    0.00139    0.00038    0.01846
C9    1    0.516597    0.663927    0.385266    11.00000    0.02230    0.04204 =
         0.02581    0.01191   -0.00161    0.00461
C8    1    0.545027    0.708104    0.523049    11.00000    0.02975    0.03715 =
         0.02752    0.00727    0.00234    0.00610
C7    1    0.588247    0.577203    0.323201    11.00000    0.02993    0.05033 =
         0.01957    0.00919    0.00352    0.01018
AFIX  43
H7    2    0.569586    0.546690    0.233188    11.00000   -1.20000
AFIX   0
C10   1    0.388451    0.834852    0.334611    11.00000    0.05799    0.03558 =
         0.04063   -0.00237   -0.01504    0.00989
AFIX  43
H10   2    0.431254    0.911571    0.402847    11.00000   -1.20000
AFIX   0
C11   1    0.328655    0.627777    0.204111    11.00000    0.02631    0.03789 =
         0.02530    0.00937   -0.00247    0.00646
C12   1    0.289506    0.826936    0.236068    11.00000    0.05493    0.03403 =
         0.04248    0.00460   -0.00905    0.01685
AFIX  43
H12   2    0.252041    0.898869    0.224892    11.00000   -1.20000
AFIX   0
C13   1    0.225577    0.871161   -0.087026    11.00000    0.03260    0.02337 =
         0.04049    0.01274    0.00623    0.00880
C14   1    0.259402    1.016291   -0.082386    11.00000    0.03112    0.02549 =
         0.03448    0.01280    0.00983    0.01162
C15   1    0.379853    1.094348   -0.085980    11.00000    0.02878    0.03123 =
         0.04971    0.01837    0.01207    0.01479
AFIX  43
H15   2    0.459708    1.062784   -0.092694    11.00000   -1.20000
AFIX   0
C16   1    0.370169    1.228660   -0.078382    11.00000    0.02892    0.02778 =
         0.04784    0.01900    0.01213    0.00736
AFIX  43
H16   2    0.443220    1.295536   -0.078889    11.00000   -1.20000
AFIX   0
C17   1    0.242164    1.249748   -0.070222    11.00000    0.03245    0.02202 =
         0.02832    0.00998    0.00787    0.00951
C18   1    0.194080    1.375732   -0.065045    11.00000    0.03148    0.02421 =
         0.02312    0.00747    0.00533    0.01050

O1W   4    0.951060    0.886270    0.578109    11.00000    0.20425    0.20213 =
         0.20000    0.05808    0.03799    0.04271
O2W   4    0.091940    0.999337   -0.461736    11.00000    0.29207    0.28511 =
         0.28448    0.08242    0.06008    0.06166
HKLF 4




REM  1_a.res in P-1
REM R1 =  0.0357 for    3533 Fo > 4sig(Fo)  and  0.0382 for all    3779 data
REM    298 parameters refined using     12 restraints

END

WGHT      0.0540      4.3043

REM Highest difference peak  2.419,  deepest hole -0.858,  1-sigma level  0.118
Q1    1   0.1968  1.0183 -0.4225  11.00000  0.05    2.42
Q2    1   0.0229  0.9939 -0.4824  11.00000  0.05    1.99
Q3    1   0.9104  0.6952  0.7460  11.00000  0.05    0.71
Q4    1   0.3329  0.5366  0.1744  11.00000  0.05    0.70
Q5    1   1.0032  0.8509  0.5889  11.00000  0.05    0.69
Q6    1   0.8710  0.8927  0.5899  11.00000  0.05    0.45
Q7    1   0.6114  0.8250  0.7380  11.00000  0.05    0.30
Q8    1   0.7696  0.5436  0.5647  11.00000  0.05    0.26
Q9    1   0.6754  0.6976  0.6055  11.00000  0.05    0.26
Q10   1   0.2824  0.7968 -0.1944  11.00000  0.05    0.26
Q11   1   0.2011  1.2007 -0.0476  11.00000  0.05    0.25
Q12   1   0.5764  0.6498  0.5531  11.00000  0.05    0.24
Q13   1   0.6136  0.5270  0.3638  11.00000  0.05    0.24
Q14   1   0.5282  0.7301  0.7699  11.00000  0.05    0.24
Q15   1   0.2169  1.3098 -0.0593  11.00000  0.05    0.23
Q16   1   0.5070  0.7964  0.6964  11.00000  0.05    0.23
Q17   1   0.6284  0.6517  0.7310  11.00000  0.05    0.21
Q18   1   0.9395  0.4125  0.5796  11.00000  0.05    0.21
Q19   1   0.0842  1.4150  0.0078  11.00000  0.05    0.20
Q20   1   0.4473  0.6884  0.3441  11.00000  0.05    0.20
;
_shelx_res_checksum              38014
_shelx_hkl_file
;
  -2   0   0  127.69    3.50
  -2   0   0  127.39    3.80
  -2   0   0  128.39    4.00
   2   0   0  127.19    3.90
   2   0   0  125.89    3.80
   2   0   0  123.39    3.50
  -3   0   0 1304.27   22.70
  -3   0   0 1309.07   22.30
  -3   0   0 1302.87   21.60
   3   0   0 1329.77   21.70
   3   0   0 1303.87   22.60
   3   0   0 1301.67   22.10
  -4   0   0 2021.70   34.10
  -4   0   0 2001.70   32.60
  -4   0   0 2015.30   33.60
   4   0   0 2032.50   34.20
   4   0   0 1974.80   32.50
   4   0   0 1987.10   33.20
   4   0   0 2046.20   33.80
  -5   0   0 1715.13   30.70
  -5   0   0 1660.63   29.90
  -5   0   0 1698.53   28.90
   5   0   0 1628.34   28.60
   5   0   0 1637.94   30.30
   5   0   0 1671.03   29.50
  -6   0   0    0.60    1.50
  -6   0   0   -1.60    1.30
   6   0   0    0.00    1.20
   6   0   0    2.40    1.70
  -7   0   0 1132.79   23.20
  -7   0   0 1177.98   25.70
   7   0   0 1183.08   23.40
   7   0   0 1146.29   24.80
  -8   0   0 1007.40   24.60
   8   0   0 1032.10   24.10
   8   0   0 1055.49   22.30
  -9   0   0  304.07   12.80
   9   0   0  300.37   12.10
 -10   0   0   32.60    6.50
  10   0   0   31.50    4.30
  10   0   0   42.10    5.90
 -11   0   0  109.79    9.00
  11   0   0  130.29   11.10
  11   0   0  112.89    7.10
 -12   0   0  225.38   13.00
  12   0   0  212.88   10.30
  12   0   0  228.78   12.60
  12  -1   0   33.80    5.60
 -12   1   0   37.90    6.20
  11  -1   0   17.60    3.70
  11  -1   0   26.50    4.90
 -11   1   0   18.50    4.60
  10  -1   0  486.65   16.40
  10  -1   0  497.25   14.90
 -10   1   0  477.95   19.10
   9  -1   0  130.99    7.70
   9  -1   0  122.39    8.10
  -9   1   0  133.49    8.30
   8  -1   0  463.15   14.00
   8  -1   0  429.16   12.60
  -8   1   0  430.56   14.50
   7  -1   0   23.30    3.10
   7  -1   0   25.00    3.40
  -7   1   0   19.20    2.80
  -7   1   0   19.30    3.40
   6  -1   0  294.57    9.10
   6  -1   0  282.27    9.20
  -6   1   0  287.27    8.80
  -6   1   0  286.97    9.80
  -6   1   0  274.37    9.00
   5  -1   0 1866.31   33.50
   5  -1   0 1907.51   32.80
   5  -1   0 1942.51   32.30
  -5   1   0 1912.21   33.70
  -5   1   0 1874.11   32.50
  -5   1   0 1892.61   32.20
   4  -1   0   85.39    3.80
   4  -1   0   83.99    4.00
   4  -1   0   85.29    4.30
  -4   1   0   85.29    4.30
  -4   1   0   88.19    3.90
  -4   1   0   81.09    4.30
   3  -1   0  103.39    3.80
   3  -1   0  100.59    4.10
   3  -1   0  103.89    3.80
  -3   1   0   99.09    3.70
  -3   1   0  102.09    4.10
  -3   1   0  107.29    3.80
   2  -1   0 1330.17   21.20
   2  -1   0 1323.17   21.40
   2  -1   0 1332.87   21.00
  -2   1   0 1335.97   21.30
  -2   1   0 1309.27   20.90
  -2   1   0 1332.47   21.40
  -1  -1   0  161.78    4.10
  -1  -1   0  169.98    4.00
   1   1   0  177.48    4.10
   1   1   0  166.08    3.90
   1   1   0  169.08    4.30
  -2  -1   0 1801.02   28.80
  -2  -1   0 1822.02   28.90
  -2  -1   0 1791.32   27.90
  -2  -1   0 1810.52   28.70
   2   1   0 1762.12   28.60
   2   1   0 1781.42   28.90
   2   1   0 1809.92   28.80
   2   1   0 1796.42   27.90
  -3  -1   0    2.00    1.10
  -3  -1   0    4.70    1.10
  -3  -1   0    3.50    1.30
   3   1   0    1.60    1.00
   3   1   0    3.90    1.20
   3   1   0    2.20    1.20
   3   1   0    2.60    1.30
  -4  -1   0  948.41   19.10
  -4  -1   0  974.50   21.20
  -4  -1   0  936.71   17.70
   4   1   0  969.10   19.20
   4   1   0  905.61   21.30
   4   1   0 1004.30   20.90
   4   1   0  972.90   17.90
  -5  -1   0    4.70    1.90
  -5  -1   0    8.50    1.90
  -5  -1   0    2.50    1.40
   5   1   0    3.70    1.40
   5   1   0    6.70    1.80
   5   1   0    3.70    1.50
   5   1   0    5.40    2.10
  -6  -1   0  601.54   14.60
  -6  -1   0  618.04   16.10
   6   1   0  612.04   15.90
   6   1   0  657.33   15.00
  -7  -1   0 1104.49   25.10
  -7  -1   0 1105.49   22.60
   7   1   0 1097.69   24.80
   7   1   0 1110.89   22.60
  -8  -1   0    2.10    2.50
   8   1   0    0.20    1.90
   8   1   0    1.50    1.80
  -9  -1   0    0.70    2.50
   9   1   0    2.00    2.20
 -10  -1   0  182.48   10.70
  10   1   0  177.68    8.60
  10   1   0  179.48   10.10
 -11  -1   0  139.59   10.20
  11   1   0  135.39    7.90
  11   1   0  138.39    9.50
 -12  -1   0    0.60    2.80
  12   1   0   -1.40    2.60
  12   1   0   -3.60    2.00
  13  -2   0  262.47   13.50
  12  -2   0    5.50    3.50
  12  -2   0    9.30    3.20
 -12   2   0   10.30    3.60
  11  -2   0   48.10    5.90
  11  -2   0   56.69    5.50
 -11   2   0   55.49    6.50
  10  -2   0 1107.29   25.70
  10  -2   0 1169.38   27.40
 -10   2   0 1167.78   29.00
   9  -2   0  574.04   16.60
   9  -2   0  575.24   15.90
  -9   2   0  532.05   17.20
   8  -2   0  188.58    8.10
   8  -2   0  195.78    8.80
  -8   2   0  191.68    9.30
   7  -2   0  119.19    6.20
   7  -2   0  122.39    6.10
  -7   2   0  114.49    6.80
   6  -2   0 1313.07   27.90
  -6   2   0 1361.86   26.60
  -6   2   0 1334.27   25.40
  -6   2   0 1315.67   25.10
   5  -2   0 1130.19   22.30
   5  -2   0 1167.28   21.80
   5  -2   0 1141.99   21.40
  -5   2   0 1143.39   21.60
  -5   2   0 1118.29   21.20
   4  -2   0  203.68    6.70
   4  -2   0  218.48    6.70
   4  -2   0  217.08    6.30
  -4   2   0  201.58    6.60
  -4   2   0  208.08    6.10
  -4   2   0  212.48    6.50
   3  -2   0 2504.55   40.00
   3  -2   0 2526.95   39.80
   3  -2   0 2566.54   39.20
  -3   2   0 2522.65   39.10
  -3   2   0 2545.85   40.00
  -3   2   0 2553.64   40.20
   2  -2   0 2097.59   32.00
   2  -2   0 2080.39   32.30
   2  -2   0 2075.39   33.00
  -2   2   0 2103.69   32.00
  -2   2   0 2079.59   33.00
  -2   2   0 2110.19   32.30
   0  -2   0  104.69    3.40
   0  -2   0  105.69    3.50
   0  -2   0  110.89    2.90
   0   2   0  102.89    3.40
   0   2   0  100.59    3.30
   0   2   0  106.89    3.60
   0   2   0  103.59    3.30
  -1  -2   0 1590.24   25.90
  -1  -2   0 1606.04   25.60
  -1  -2   0 1677.23   26.50
   1   2   0 1638.84   26.00
   1   2   0 1582.74   25.50
   1   2   0 1658.23   26.40
   1   2   0 1645.64   26.00
   2   2   0 5583.44   83.29
  -3  -2   0 1207.08   22.50
  -3  -2   0 1232.68   21.30
  -3  -2   0 1214.58   22.20
   3   2   0 1235.28   21.40
   3   2   0 1219.18   22.50
   3   2   0 1190.28   22.00
   3   2   0 1211.08   22.80
  -4  -2   0  240.08    7.10
  -4  -2   0  232.38    8.20
   4   2   0  234.58    7.10
   4   2   0  232.18    8.30
   4   2   0  234.98    8.00
   4   2   0  234.98    7.90
  -5  -2   0 1651.73   31.30
  -5  -2   0 1664.93   29.30
   5   2   0 1679.83   31.70
   5   2   0 1648.94   29.40
  -6  -2   0 1461.65   27.30
  -6  -2   0 1479.45   33.70
  -7  -2   0  634.14   18.00
   7   2   0  642.64   18.10
   7   2   0  706.43   16.50
  -8  -2   0   66.29    6.30
   8   2   0   62.69    5.80
   8   2   0   57.69    4.80
  -9  -2   0 1033.30   26.90
   9   2   0 1063.39   27.10
   9   2   0 1020.40   23.30
 -10  -2   0  426.76   16.90
  10   2   0  412.66   13.70
  10   2   0  432.56   17.20
 -11  -2   0   47.10    6.90
  11   2   0   59.69    7.40
  11   2   0   60.19    5.80
  12   2   0   17.20    4.80
  12   2   0   15.70    3.50
  13  -3   0   -6.00    2.40
  13  -3   0   -2.30    2.90
  12  -3   0    7.60    2.80
  12  -3   0   -0.70    3.00
 -12   3   0    2.90    3.40
  11  -3   0  169.38    9.60
  11  -3   0  178.48    9.20
 -11   3   0  182.58   10.90
  10  -3   0  494.35   15.80
  10  -3   0  502.35   15.60
 -10   3   0  520.75   17.80
   9  -3   0  131.29    7.40
   9  -3   0  137.79    7.60
  -9   3   0  116.09    8.20
   8  -3   0  675.03   17.10
   8  -3   0  683.93   25.00
  -8   3   0  667.13   18.40
   7  -3   0    1.20    1.70
   7  -3   0   -0.90    1.60
  -7   3   0    0.70    1.60
   6  -3   0  198.28    7.70
   6  -3   0  208.18    8.60
  -6   3   0  206.18    7.70
  -6   3   0  201.28    7.20
  -6   3   0  204.18    8.00
   5  -3   0   43.00    3.60
   5  -3   0   47.90    3.40
  -5   3   0   48.10    3.60
  -5   3   0   48.80    3.30
   4  -3   0  396.26   10.30
   4  -3   0  405.66    9.40
   4  -3   0  392.96   10.00
  -4   3   0  398.76    9.30
  -4   3   0  406.36   10.00
  -4   3   0  388.36   10.20
   3  -3   0 1433.46   23.90
   3  -3   0 1434.56   25.40
   3  -3   0 1465.25   24.50
  -3   3   0 1474.75   24.00
  -3   3   0 1422.26   25.40
  -3   3   0 1427.36   24.40
   2  -3   0  302.97    7.00
   2  -3   0  293.67    6.80
   2  -3   0  308.57    8.10
  -2   3   0  307.07    7.00
  -2   3   0  298.57    6.90
  -2   3   0  301.07    7.90
   1  -3   0  745.13   14.50
   1  -3   0  740.23   13.50
   1  -3   0  732.83   12.70
  -1   3   0  739.43   14.40
  -1   3   0  749.03   12.80
  -1   3   0  727.13   12.70
  -1   3   0  740.23   13.50
   0  -3   0  141.99    5.00
   0  -3   0  142.59    4.00
   0   3   0  150.28    4.80
   0   3   0  139.09    4.00
   0   3   0  141.39    4.00
   0   3   0  145.29    5.00
   0   3   0  146.29    5.00
  -1  -3   0  499.25   10.10
  -1  -3   0  496.85   11.00
  -1  -3   0  483.45   10.70
   1   3   0  487.95   10.80
   1   3   0  498.15   10.10
   1   3   0  489.65   10.70
   1   3   0  512.05   11.10
  -2  -3   0  363.26    9.40
  -2  -3   0  346.17    8.70
  -2  -3   0  350.76    8.80
   2   3   0  354.96    8.90
   2   3   0  357.96    8.80
   2   3   0  345.37    8.60
   2   3   0  357.86    9.40
   2   3   0  349.47    9.50
  -3  -3   0    8.80    1.80
  -3  -3   0    6.40    1.80
   3   3   0    8.20    2.10
   3   3   0    7.10    1.80
   3   3   0    9.50    2.50
   3   3   0    8.20    1.70
  -4  -3   0  897.01   19.60
  -4  -3   0  904.41   19.20
  -4  -3   0  873.71   17.90
   4   3   0  896.41   18.90
   4   3   0  898.81   18.10
   4   3   0  873.91   19.70
  -5  -3   0  626.54   15.90
  -5  -3   0  586.74   14.20
   5   3   0  623.54   16.50
  -6  -3   0  194.18    8.90
  -6  -3   0  211.08    7.90
   6   3   0  197.78    9.20
   6   3   0  220.88    8.20
  -7  -3   0   11.00    3.20
   7   3   0   15.40    3.00
   7   3   0   17.50    3.80
  -8  -3   0   33.90    4.90
   8   3   0   29.30    5.00
   8   3   0   20.00    4.00
   9   3   0  492.45   14.90
   9   3   0  493.55   18.20
 -10  -3   0   81.19    7.90
  10   3   0   97.99    6.60
  10   3   0   82.39    8.10
 -11  -3   0    0.10    3.40
  11   3   0    3.50    2.90
  11   3   0    8.70    3.40
  12  -4   0  180.58   12.20
  12  -4   0  201.48   11.00
 -12   4   0  204.88   12.00
  11  -4   0  755.22   20.70
  11  -4   0  690.63   20.20
 -11   4   0  685.63   21.90
  10  -4   0   16.30    3.30
  10  -4   0   18.90    3.80
 -10   4   0   15.70    3.80
   9  -4   0   51.79    5.00
   9  -4   0   57.69    5.40
  -9   4   0   61.69    6.20
   8  -4   0 1168.98   26.00
   8  -4   0 1202.38   25.10
  -8   4   0 1205.68   26.80
   7  -4   0  294.67   10.40
   7  -4   0  291.37    9.60
  -7   4   0  281.07    9.40
   6  -4   0   31.00    3.20
   6  -4   0   32.70    3.60
  -6   4   0   28.10    2.90
  -6   4   0   36.00    3.90
   5  -4   0   75.69    4.10
   5  -4   0   87.19    5.10
   5  -4   0   75.89    4.40
  -5   4   0   76.19    4.80
  -5   4   0   75.19    4.00
   4  -4   0 7578.04  111.29
  -4   4   0 7384.36  110.39
  -4   4   0 7470.75  112.79
  -4   4   0 7482.05  111.19
   3  -4   0 2865.41   47.00
   3  -4   0 2801.92   44.30
   3  -4   0 2795.52   44.20
  -3   4   0 2850.11   44.30
  -3   4   0 2844.92   44.40
  -3   4   0 2820.12   46.80
   2  -4   0    9.30    1.50
   2  -4   0   10.40    1.60
   2  -4   0    9.80    1.90
  -2   4   0   11.20    1.70
  -2   4   0    9.40    1.90
  -2   4   0   10.70    1.50
   1  -4   0 2697.33   41.60
   1  -4   0 2734.13   44.30
   1  -4   0 2734.43   43.00
  -1   4   0 2698.13   44.10
  -1   4   0 2731.53   41.70
  -1   4   0 2774.52   43.10
  -1   4   0 2728.03   41.60
   0  -4   0 3386.26   53.49
   0  -4   0 3417.16   51.29
   0  -4   0 3433.06   52.99
   0   4   0 3402.96   52.99
   0   4   0 3354.36   53.69
   0   4   0 3366.66   53.39
   0   4   0 3371.96   51.19
   0   4   0 3376.06   51.29
  -1  -4   0 3877.21   59.79
  -1  -4   0 3704.93   59.39
  -1  -4   0 3866.11   57.99
   1   4   0 3887.91   60.09
   1   4   0 3682.63   57.79
   1   4   0 3850.41   60.79
   1   4   0 3758.02   59.59
  -2  -4   0  238.38    8.30
  -2  -4   0  253.27    7.90
  -2  -4   0  248.88    7.40
   2   4   0  268.37    8.80
   2   4   0  254.87    8.70
   2   4   0  241.78    8.10
   2   4   0  252.67    7.90
   2   4   0  240.38    7.30
  -3  -4   0  847.92   18.70
  -3  -4   0  803.12   17.60
   3   4   0  841.02   19.00
   3   4   0  830.12   17.90
   3   4   0  793.62   17.10
   3   4   0  817.32   17.30
  -4  -4   0 2114.69   37.80
  -4  -4   0 2148.29   38.90
  -4  -4   0 2059.09   36.80
   4   4   0 2167.88   37.80
   4   4   0 2125.89   39.40
  -5  -4   0 1739.53   34.20
  -5  -4   0 1675.03   32.20
  -5  -4   0 1813.92   37.00
   5   4   0 1703.03   34.60
   5   4   0 1740.23   32.20
  -6  -4   0    1.80    2.20
   6   4   0   -2.00    1.50
   6   4   0   -0.50    1.50
  -7  -4   0  243.88   11.00
   7   4   0  227.68    9.40
   7   4   0  230.88   11.00
  -8  -4   0  348.97   14.10
   8   4   0  369.66   12.50
   8   4   0  347.97   14.40
  -9  -4   0  404.76   16.00
   9   4   0  376.66   13.10
   9   4   0  363.96   15.70
 -10  -4   0    3.90    3.60
  10   4   0   -1.70    2.70
  10   4   0    4.70    2.60
 -11  -4   0  123.99   10.20
  11   4   0  122.09    7.90
  11   4   0  130.99   10.40
  12  -5   0  115.79    8.40
  12  -5   0  114.59    8.40
 -12   5   0  110.89    9.20
  11  -5   0    8.80    3.40
  11  -5   0    7.80    3.20
 -11   5   0   10.20    4.00
  10  -5   0  216.08    9.80
  10  -5   0  201.08   10.10
 -10   5   0  213.38   10.80
   9  -5   0  396.36   14.00
   9  -5   0  412.76   13.40
  -9   5   0  392.46   14.20
   8  -5   0  116.09    7.10
   8  -5   0  123.39    6.60
  -8   5   0  121.39    7.30
   7  -5   0   49.30    4.20
   7  -5   0   52.49    5.00
  -7   5   0   55.69    4.10
   6  -5   0  770.52   21.40
  -6   5   0  730.43   16.40
  -6   5   0  753.72   17.60
   5  -5   0 1747.63   31.90
   5  -5   0 1801.32   33.80
   5  -5   0 1780.12   31.20
  -5   5   0 1808.02   31.50
  -5   5   0 1781.42   34.90
   4  -5   0  385.96    9.90
   4  -5   0  394.06   11.60
   4  -5   0  380.76   10.00
  -4   5   0  394.06   10.10
  -4   5   0  389.26    9.90
   3  -5   0  211.18    8.00
   3  -5   0  230.88    7.00
   3  -5   0  222.08    6.60
  -3   5   0  235.78    6.80
  -3   5   0  220.38    8.20
  -3   5   0  233.08    7.00
   2  -5   0  711.03   13.90
   2  -5   0  729.63   15.00
   2  -5   0  746.73   16.80
  -2   5   0  721.83   14.10
  -2   5   0  722.13   16.40
  -2   5   0  714.53   14.90
  -2   5   0  735.73   14.00
   1  -5   0 4324.97   65.59
   1  -5   0 4310.27   67.29
  -1   5   0 4284.97   65.69
  -1   5   0 3873.91   67.99
  -1   5   0 4272.37   63.69
  -1   5   0 4347.56   67.59
  -1   5   0 4217.68   66.89
   0  -5   0 1412.66   27.30
   0  -5   0 1439.46   24.30
   0  -5   0 1437.16   28.40
   0   5   0 1431.56   24.30
   0   5   0 1454.85   27.50
   0   5   0 1378.26   26.40
   0   5   0 1391.96   24.00
   0   5   0 1432.06   26.20
  -1  -5   0  472.55   12.30
  -1  -5   0  487.75   11.00
   1   5   0  482.25   12.50
   1   5   0  476.35   12.50
   1   5   0  462.05   12.10
   1   5   0  463.85   10.80
  -2  -5   0   47.10    3.60
  -2  -5   0   49.40    3.50
  -2  -5   0   47.90    4.00
   2   5   0   35.30    3.70
   2   5   0   45.10    3.80
   2   5   0   46.80    3.70
  -3  -5   0  412.06   11.40
  -3  -5   0  422.26   12.60
  -3  -5   0  399.96   11.80
   3   5   0  441.26   13.60
   3   5   0  395.06   12.60
   3   5   0  397.36   11.20
   3   5   0  403.46   11.70
  -4  -5   0  354.66   11.30
  -4  -5   0  346.97   12.00
   4   5   0  354.76   12.50
   4   5   0  365.86   11.20
  -5  -5   0   88.99    5.90
  -5  -5   0   89.99    6.30
   5   5   0   83.99    5.60
   5   5   0   76.89    6.20
  -6  -5   0  176.98    9.20
   6   5   0  181.18   13.00
   6   5   0  171.08    9.40
  -7  -5   0  378.26   14.30
   7   5   0  403.56   15.50
   7   5   0  418.66   13.40
  -8  -5   0    1.10    3.60
   8   5   0    1.70    2.60
   8   5   0   -0.60    2.00
  -9  -5   0    1.60    3.00
   9   5   0   -2.70    2.20
   9   5   0   -3.50    1.80
 -10  -5   0   38.10    6.40
  10   5   0   52.79    7.70
  10   5   0   36.40    4.80
  12  -6   0   83.19    7.50
  12  -6   0   81.39    7.10
 -12   6   0   79.89    7.60
  11  -6   0   66.69    7.60
  11  -6   0   47.00    5.80
 -11   6   0   57.99    6.80
  10  -6   0  449.06   14.30
  10  -6   0  469.35   16.40
 -10   6   0  441.06   15.90
   9  -6   0  454.75   15.60
   9  -6   0  445.56   14.10
  -9   6   0  469.15   15.50
   8  -6   0  324.07   12.50
   8  -6   0  315.97   10.70
  -8   6   0  318.67   11.90
   7  -6   0   53.49    4.40
   7  -6   0   51.79    5.10
  -7   6   0   57.29    6.00
   6  -6   0 2107.59   40.10
   6  -6   0 2115.29   36.90
  -6   6   0 2151.08   38.00
  -6   6   0 2048.20   36.70
   5  -6   0 1761.62   34.20
   5  -6   0 1702.43   31.30
  -5   6   0 1763.92   31.60
  -5   6   0 1737.73   31.10
   4  -6   0    5.00    2.10
   4  -6   0    5.60    2.10
   4  -6   0    3.00    1.60
  -4   6   0    5.70    1.80
  -4   6   0    3.70    1.50
   3  -6   0  202.08    7.30
   3  -6   0  199.78    6.50
   3  -6   0  212.08    8.70
  -3   6   0  193.98    6.50
  -3   6   0  199.18    7.20
   2  -6   0 1644.84   28.10
   2  -6   0 1688.33   32.10
  -2   6   0 1693.43   30.00
  -2   6   0 1680.13   28.10
  -2   6   0 1630.44   28.10
   1  -6   0 2198.58   38.00
   1  -6   0 2170.18   39.60
  -1   6   0 2239.48   35.90
  -1   6   0 2262.87   40.20
  -1   6   0 2214.98   36.00
  -1   6   0 2183.28   38.10
   0  -6   0    3.50    1.40
   0  -6   0    0.50    1.30
   0  -6   0    1.50    1.40
   0   6   0    1.90    1.10
   0   6   0    2.20    1.50
   0   6   0    5.70    1.50
  -1  -6   0  443.26   11.00
  -1  -6   0  431.56   12.50
   1   6   0  429.76   12.70
   1   6   0  430.36   12.20
   1   6   0  439.56   11.00
  -2  -6   0  895.41   18.80
   2   6   0  872.51   18.60
   2   6   0  931.51   20.70
  -3  -6   0  526.45   15.50
  -3  -6   0  550.34   14.20
   3   6   0  541.65   14.90
   3   6   0  538.45   15.90
  -4  -6   0  276.57   11.20
   4   6   0  288.77   11.80
   4   6   0  279.67   12.30
  -5  -6   0  870.81   22.90
  -5  -6   0  872.71   21.40
   5   6   0  849.52   23.30
   5   6   0  906.51   21.40
  -6  -6   0  763.82   21.70
  -6  -6   0  732.73   20.30
   6   6   0  765.62   19.80
   6   6   0  735.13   22.10
  -7  -6   0   99.19    7.50
   7   6   0  106.99    8.40
   7   6   0   92.09    6.70
  -8  -6   0    8.90    3.50
   8   6   0    4.40    2.70
   8   6   0    1.80    2.80
  -9  -6   0  204.28   11.80
   9   6   0  180.18    9.90
   9   6   0  195.58   12.00
  10   6   0  212.38   10.70
  10   6   0  220.48   15.60
  12  -7   0  166.88    9.70
  12  -7   0  193.38   11.40
 -12   7   0  210.88   12.20
  11  -7   0   59.79    6.50
  11  -7   0   68.59    6.40
 -11   7   0   72.99    7.30
  10  -7   0  122.59    7.60
  10  -7   0  146.19   11.30
 -10   7   0  137.59    8.90
   9  -7   0   13.10    3.70
   9  -7   0    5.50    2.60
  -9   7   0   11.50    3.40
   8  -7   0   81.39    5.60
   8  -7   0   73.99    6.70
  -8   7   0   75.69    6.00
   7  -7   0   14.50    2.80
   7  -7   0   12.80    3.30
  -7   7   0   10.10    2.90
   6  -7   0  978.50   20.90
   6  -7   0  957.80   23.90
  -6   7   0 1007.00   21.60
   5  -7   0   94.69    5.30
   5  -7   0   99.39    7.00
   5  -7   0   97.89    5.30
  -5   7   0   95.29    5.30
  -5   7   0  107.29    5.70
   4  -7   0  180.08    6.70
   4  -7   0  179.08    8.70
   4  -7   0  183.18    7.20
  -4   7   0  175.98    7.20
  -4   7   0  177.68    9.80
   3  -7   0  510.85   12.00
   3  -7   0  532.35   13.40
   3  -7   0  504.35   15.00
  -3   7   0  512.95   12.10
  -3   7   0  497.85   13.10
  -3   7   0  502.55   12.00
   2  -7   0   65.19    4.50
   2  -7   0   72.59    5.50
  -2   7   0   85.29    6.10
  -2   7   0   70.69    4.00
  -2   7   0   65.99    3.70
   1  -7   0    3.40    1.70
   1  -7   0   15.30    3.20
  -1   7   0    6.30    1.60
  -1   7   0    6.00    1.50
  -1   7   0    3.50    1.90
   0  -7   0  337.47   12.20
   0  -7   0  344.27   11.20
   0  -7   0  362.56    9.70
   0   7   0  351.86   12.50
   0   7   0  333.37   13.20
   0   7   0  354.56    9.70
  -1  -7   0  241.78    9.50
  -1  -7   0  244.38    9.60
   1   7   0  223.88    7.60
   1   7   0  226.48    9.60
  -2  -7   0  171.48    8.40
  -2  -7   0  198.38    7.70
   2   7   0  182.18    8.70
   2   7   0  181.58    8.90
  -3  -7   0   60.89    5.40
  -3  -7   0   53.29    4.60
   3   7   0   64.19    5.60
   3   7   0   55.19    5.50
  -4  -7   0  354.86   12.10
  -4  -7   0  345.57   13.30
   4   7   0  358.66   12.70
   4   7   0  350.46   13.80
  -5  -7   0  299.67   11.90
  -5  -7   0  325.37   13.40
   5   7   0  332.67   12.40
   5   7   0  347.57   14.40
  -6  -7   0   16.00    3.80
  -6  -7   0   21.70    4.70
   6   7   0   19.40    4.60
   6   7   0   17.40    3.60
  -7  -7   0   20.40    4.90
   7   7   0   17.40    3.80
   7   7   0   12.80    4.10
  -8  -7   0   49.60    6.60
   8   7   0   44.70    6.80
  -9  -7   0  149.09   10.10
   9   7   0  133.69    8.80
  11  -8   0  405.26   14.10
  11  -8   0  379.16   16.00
  10  -8   0   62.79    6.30
  10  -8   0   53.49    5.70
 -10   8   0   48.70    6.00
   9  -8   0    6.10    3.00
   9  -8   0   -2.20    2.00
  -9   8   0   -1.40    2.10
   8  -8   0  318.07   13.50
  -8   8   0  330.07   12.00
   7  -8   0  250.27    9.40
   7  -8   0  244.28   11.50
  -7   8   0  243.38    9.80
   6  -8   0   57.79    5.70
   6  -8   0   66.19    5.00
  -6   8   0   64.29    5.10
   5  -8   0   33.40    4.80
   5  -8   0   27.10    3.50
  -5   8   0   35.10    3.80
   4  -8   0  698.73   15.90
   4  -8   0  703.33   17.10
   4  -8   0  739.63   20.20
  -4   8   0  732.73   17.20
  -4   8   0  712.53   15.90
   3  -8   0 1189.38   23.40
   3  -8   0 1181.68   24.90
   3  -8   0 1243.28   28.30
  -3   8   0 1250.87   28.60
  -3   8   0 1218.58   23.10
  -3   8   0 1265.37   25.60
   2  -8   0  214.28   10.00
   2  -8   0  221.28    8.80
  -2   8   0  226.48    7.60
  -2   8   0  209.88    8.60
  -2   8   0  233.38   10.50
   1  -8   0  280.37   10.70
   1  -8   0  288.47   11.40
  -1   8   0  296.27    8.70
  -1   8   0  298.77    9.10
  -1   8   0  296.97   11.80
   0  -8   0  640.74   18.20
   0  -8   0  676.43   17.70
   0   8   0  630.04   14.70
   0   8   0  656.23   20.30
   0   8   0  681.73   18.90
  -1  -8   0 2021.60   35.90
  -1  -8   0 2006.00   39.30
   1   8   0 2046.60   40.20
   1   8   0 2032.00   36.10
  -2  -8   0    4.90    2.80
  -2  -8   0   10.70    2.50
   2   8   0    3.00    2.40
   2   8   0    6.70    2.20
   2   8   0    9.60    2.80
  -3  -8   0  129.39    7.10
  -3  -8   0  131.89    8.20
   3   8   0  136.79    8.10
   3   8   0  137.79    8.70
  -4  -8   0  735.63   21.40
  -4  -8   0  704.53   18.80
   4   8   0  712.93   20.20
   4   8   0  715.93   22.00
  -5  -8   0  345.97   14.60
  -5  -8   0  334.07   13.10
   5   8   0  352.46   13.60
   5   8   0  365.26   15.50
  -6  -8   0    0.00    2.60
  -6  -8   0    1.40    2.40
   6   8   0    3.80    2.80
   6   8   0   -1.40    2.90
  -7  -8   0   11.90    3.70
   7   8   0   20.70    4.90
   7   8   0   21.50    4.10
  -8  -8   0  331.27   15.10
   8   8   0  340.07   19.50
  11  -9   0   -6.00    3.30
  11  -9   0    4.50    2.90
 -11   9   0    0.60    2.60
  10  -9   0  210.38   12.20
  10  -9   0  208.28    9.70
 -10   9   0  216.28   11.40
   9  -9   0  337.47   14.80
   9  -9   0  335.27   11.90
  -9   9   0  317.87   12.60
   8  -9   0   -1.30    1.80
   8  -9   0    3.10    2.50
  -8   9   0   -0.60    2.10
   7  -9   0   -2.10    1.50
  -7   9   0   -2.70    1.60
   6  -9   0  402.86   15.00
   6  -9   0  423.96   15.90
  -6   9   0  409.06   12.50
   5  -9   0  568.14   18.60
   5  -9   0  608.44   18.70
  -5   9   0  608.64   15.20
   4  -9   0  729.33   18.50
   4  -9   0  685.83   16.20
   4  -9   0  704.23   20.90
  -4   9   0  708.53   21.30
  -4   9   0  723.03   16.60
  -4   9   0  751.02   17.70
   3  -9   0   98.29    7.40
   3  -9   0   94.79    6.00
  -3   9   0   96.59    7.40
  -3   9   0   85.19    4.90
  -3   9   0   95.09    5.40
   2  -9   0  163.38    8.10
   2  -9   0  157.08    9.20
  -2   9   0  153.88    6.30
  -2   9   0  159.78    7.90
  -2   9   0  141.19    9.00
   1  -9   0  399.76   14.70
   1  -9   0  401.26   13.30
  -1   9   0  402.06   11.20
  -1   9   0  415.66   15.20
  -1   9   0  376.96   10.60
   0  -9   0  208.58    9.80
   0   9   0  224.48    8.20
   0   9   0  206.78   10.50
  -1  -9   0  118.99    6.10
  -1  -9   0  126.79    8.10
   1   9   0  117.79    6.40
   1   9   0  126.29    8.20
  -2  -9   0   88.69    7.00
  -2  -9   0   88.49    6.90
   2   9   0   83.99    7.10
   2   9   0   75.69    6.90
  -3  -9   0  535.35   18.00
  -3  -9   0  573.24   16.00
   3   9   0  548.75   17.90
   3   9   0  551.44   16.20
   3   9   0  565.14   19.10
  -4  -9   0  106.29    7.20
  -4  -9   0  117.29    8.50
   4   9   0  119.79    8.40
   4   9   0  120.09    8.90
  -5  -9   0    3.50    2.70
  -5  -9   0    0.80    2.60
   5   9   0   -1.00    2.30
   5   9   0    0.50    2.30
  -6  -9   0   51.19    7.10
  -6  -9   0   36.50    5.80
   6   9   0   40.60    6.50
  -7  -9   0   78.29    7.90
   7   9   0  107.69   16.10
   7   9   0   66.79    7.40
  10 -10   0  136.99    8.40
  10 -10   0  149.49   10.50
   9 -10   0  382.56   16.60
   9 -10   0  360.96   12.70
  -9  10   0  373.76   13.60
   8 -10   0   31.50    4.30
   8 -10   0   37.90    6.30
  -8  10   0   29.10    4.30
   7 -10   0   99.99    8.00
   7 -10   0   89.79    6.30
  -7  10   0   99.99    6.50
   6 -10   0  668.43   21.50
   6 -10   0  619.94   17.00
   5 -10   0  772.82   19.50
   5 -10   0  770.92   23.40
  -5  10   0  796.62   24.10
  -5  10   0  774.42   18.10
   4 -10   0   78.59    5.90
  -4  10   0   80.99    5.20
   3 -10   0  106.69    8.20
   3 -10   0  101.79    6.70
  -3  10   0  102.79    5.70
  -3  10   0  106.49    8.20
   2 -10   0  464.05   16.80
   2 -10   0  442.36   14.50
  -2  10   0  432.76   12.10
  -2  10   0  461.95   17.10
   1 -10   0  363.06   14.70
   1 -10   0  354.76   13.30
  -1  10   0  371.56   15.00
  -1  10   0  355.06   10.80
   0 -10   0  209.58   10.50
   0  10   0  223.88    8.70
   0  10   0  224.98   11.70
  -1 -10   0  140.59    8.80
   1  10   0  151.38    9.50
   1  10   0  140.99    9.30
   1  10   0  140.69   10.30
  -2 -10   0  143.69   11.30
  -2 -10   0  134.79    7.40
   2  10   0  135.69    9.40
   2  10   0  158.68   12.20
   2  10   0  138.79    7.60
  -3 -10   0  425.46   16.60
  -3 -10   0  395.26   13.30
   3  10   0  403.16   13.80
   3  10   0  407.46   17.00
  -4 -10   0   49.70    5.70
  -4 -10   0   57.99    6.60
   4  10   0   51.79    6.40
   4  10   0   58.99    7.20
   4  10   0   50.89    5.80
  -5 -10   0   72.89    6.80
  -5 -10   0   69.49    7.70
   5  10   0   71.39    7.30
   5  10   0   65.49    7.90
  -6 -10   0  191.98   11.00
   6  10   0  168.88   10.90
   9 -11   0   -3.30    2.60
   9 -11   0   -0.40    3.20
  -9  11   0   -5.10    2.20
   8 -11   0   56.49    7.70
   8 -11   0   47.80    5.60
  -8  11   0   59.29    5.80
   7 -11   0  420.36   14.00
   7 -11   0  429.96   17.80
  -7  11   0  385.76   14.30
  -7  11   0  444.16   18.50
   6 -11   0  112.59    7.20
   6 -11   0  103.19    8.60
  -6  11   0  109.29    9.30
  -6  11   0  115.09    6.70
   5 -11   0    1.60    2.20
   5 -11   0    1.00    2.90
  -5  11   0    1.10    2.00
  -5  11   0    0.40    2.50
   4 -11   0  179.18   11.00
   4 -11   0  163.88    8.70
  -4  11   0  180.28    7.60
  -4  11   0  168.78   11.00
   3 -11   0  130.29    9.50
   3 -11   0  127.79    7.70
  -3  11   0  125.09    9.60
  -3  11   0  120.39    6.30
   2 -11   0   80.59    6.70
   2 -11   0   79.29    7.80
  -2  11   0   76.79    7.80
  -2  11   0   67.99    5.00
   1 -11   0    2.10    2.40
  -1  11   0    7.40    3.30
  -1  11   0    1.50    2.10
   0  11   0  210.88   10.30
   0  11   0  215.78   11.90
  -1 -11   0  154.18    9.60
   1  11   0  136.89    9.70
   1  11   0  158.28    7.80
   1  11   0  129.69    9.70
  -2 -11   0   15.50    3.30
  -2 -11   0   16.70    4.20
   2  11   0   15.40    4.50
   2  11   0   15.70    3.50
   2  11   0   19.80    4.80
  -3 -11   0    3.90    2.70
  -3 -11   0    5.10    2.70
   3  11   0    7.50    3.60
   3  11   0    2.00    2.90
   3  11   0   -0.60    2.60
  -4 -11   0   81.79    8.40
  -4 -11   0   92.69    7.20
   4  11   0   79.29    8.80
   4  11   0   67.59    6.30
   4  11   0   78.99    7.50
   7 -12   0  250.27   10.90
   7 -12   0  253.67   15.80
  -7  12   0  240.48    9.90
  -7  12   0  253.07   16.80
   6 -12   0  101.39    8.90
   6 -12   0   97.29    7.00
  -6  12   0  102.69    6.40
  -6  12   0  111.69    9.70
   5 -12   0   41.00    5.30
   5 -12   0   41.50    6.30
  -5  12   0   50.89    7.40
   4 -12   0   60.19    7.30
   4 -12   0   67.79    6.20
  -4  12   0   47.70    4.70
  -4  12   0   61.79    7.60
   3 -12   0  265.47   13.80
  -3  12   0  278.17   14.50
  -3  12   0  276.57    9.60
   2 -12   0   67.29    7.90
  -2  12   0   52.29    7.60
  -2  12   0   42.70    4.40
   1 -12   0   29.20    4.80
  -1  12   0   21.40    5.50
  -1  12   0   36.20    6.20
   0 -12   0  340.47   14.70
   0  12   0  345.47   15.40
   0  12   0  312.27   15.30
   0  12   0  317.87   11.20
  -1 -12   0  202.88   11.50
   1  12   0  188.88   11.70
   1  12   0  154.18    8.30
   1  12   0  181.38   11.50
  -2 -12   0   18.80    3.90
   2  12   0   15.60    5.20
   2  12   0   10.50    4.00
   2  12   0   12.30    3.40
   4 -13   0   91.49    7.40
   4 -13   0   91.19   10.70
  -4  13   0   86.09   14.60
   3 -13   0    7.50    3.30
   2 -13   0   34.00    5.50
  -2  13   0   24.30    9.10
  -1  13   0  364.86   25.10
   0  13  -1   26.50    5.60
   0  13  -1   19.00    4.00
   0  13  -1   27.50    5.60
   0 -13   1   29.90    5.30
  -1  13  -1  260.77   13.20
  -1  13  -1  257.77   10.70
  -1  13  -1  292.67   15.40
   1 -13   1  266.37   12.60
  -2  13  -1  126.89    9.20
  -2  13  -1  136.79   11.00
  -2  13  -1  125.99    7.80
   2 -13   1  147.39   10.60
   2 -13   1  148.19    9.10
  -3  13  -1    2.10    3.40
  -3  13  -1   -5.30    2.30
   3 -13   1   10.50    3.70
  -4  13  -1   61.99    9.60
  -4  13  -1   42.50    5.00
   4 -13   1   62.19    6.20
   4 -13   1   68.89    9.60
  -5  13  -1   76.39    6.50
   5 -13   1   73.19    6.60
   5 -13   1   58.89    9.80
   3  12  -1   84.79    8.30
   3  12  -1   78.39    8.50
   3  12  -1   92.29    7.30
  -3 -12   1   82.69    7.10
  -3 -12   1   75.99    7.80
   2  12  -1    1.70    3.50
   2  12  -1   -6.20    3.10
   2  12  -1    7.40    2.90
  -2 -12   1    2.30    3.00
   1  12  -1  194.38   11.90
   1  12  -1  184.28   11.40
   1  12  -1  164.48    9.00
  -1 -12   1  196.78   11.30
   0  12  -1  387.36   15.90
   0  12  -1  414.16   17.40
   0  12  -1  367.16   12.90
   0 -12   1  373.96   14.90
  -1  12  -1  229.68    9.80
  -1  12  -1  249.38   14.20
  -1  12  -1  228.98   13.10
  -2  12  -1    0.90    3.30
  -2  12  -1    1.20    2.60
   2 -12   1    7.00    3.00
   2 -12   1    8.00    3.90
  -3  12  -1  175.48   11.90
  -3  12  -1  200.08    9.00
   3 -12   1  212.98   12.40
   3 -12   1  207.18   10.10
  -4  12  -1  152.18   10.80
  -4  12  -1  157.98    8.10
   4 -12   1  153.28   10.50
   4 -12   1  146.69    8.30
  -5  12  -1  102.09    8.80
   5 -12   1  126.89    7.50
   5 -12   1  115.29    9.40
  -6  12  -1   14.90    4.60
  -6  12  -1    3.90    3.00
   6 -12   1   18.30    4.90
   6 -12   1    7.70    2.80
  -7  12  -1  144.59   11.20
  -7  12  -1  136.29   12.50
   7 -12   1  149.69    7.90
   7 -12   1  189.18   12.20
  -8  12  -1  241.98   11.00
   5  11  -1  116.39    8.60
   5  11  -1  120.59   11.50
   5  11  -1  110.79    8.80
  -5 -11   1   95.39    8.30
   4  11  -1  167.08   11.40
   4  11  -1  150.38   10.10
   4  11  -1  161.78   10.00
  -4 -11   1  154.28   10.90
  -4 -11   1  157.78   10.50
   3  11  -1   46.00    6.30
   3  11  -1   60.99    7.90
   3  11  -1   59.59    5.90
  -3 -11   1   51.79    5.60
  -3 -11   1   58.99    7.10
   2  11  -1    9.20    3.60
   2  11  -1   10.50    3.70
   2  11  -1   11.00    3.30
  -2 -11   1    7.40    2.90
  -2 -11   1   14.50    3.60
   1  11  -1  163.28   10.20
   1  11  -1  153.98    8.20
   0  11  -1  417.36   13.40
   0  11  -1  410.16   15.70
   0  11  -1  437.96   17.00
   0 -11   1  401.56   14.80
  -1  11  -1   43.60    4.80
  -1  11  -1   53.99    7.10
   1 -11   1   49.50    6.60
   1 -11   1   40.90    4.80
  -2  11  -1    9.20    3.70
  -2  11  -1    5.30    3.10
   2 -11   1   11.60    2.90
   2 -11   1    4.70    2.80
  -3  11  -1  228.88   12.40
  -3  11  -1  240.88   11.30
   3 -11   1  228.18   12.10
   3 -11   1  224.38    9.80
  -4  11  -1  166.88    8.00
  -4  11  -1  178.38   11.00
   4 -11   1  178.08    8.50
   4 -11   1  165.18   10.70
  -5  11  -1   56.99    5.40
  -5  11  -1   61.99    7.10
   5 -11   1   47.10    6.50
   5 -11   1   58.89    5.10
  -6  11  -1   56.89    5.60
   6 -11   1   73.89    5.40
   6 -11   1   64.59    7.40
  -7  11  -1  162.58    8.80
   7 -11   1  143.69   10.30
   7 -11   1  182.88    8.20
  -8  11  -1  231.28   10.80
   8 -11   1  222.48    9.20
   8 -11   1  231.98   13.10
   9 -11   1   25.80    4.00
   9 -11   1   38.90    6.60
   6  10  -1  261.77   14.60
   6  10  -1  243.78   12.30
  -6 -10   1  258.37   12.70
   5  10  -1  304.47   15.20
  -5 -10   1  316.47   14.70
   4  10  -1    1.00    2.40
   4  10  -1    1.00    2.30
   4  10  -1    2.10    3.70
  -4 -10   1    0.30    2.40
  -4 -10   1    5.40    3.50
   3  10  -1  133.09    9.10
   3  10  -1  120.69    8.60
   3  10  -1  109.19    7.40
  -3 -10   1  124.89    8.80
  -3 -10   1  119.39    7.50
   2  10  -1  810.02   23.40
   2  10  -1  815.82   23.00
   2  10  -1  792.72   20.30
  -2 -10   1  765.12   22.20
  -2 -10   1  804.02   20.30
   1  10  -1  299.97   12.90
   1  10  -1  309.07   13.30
   1  10  -1  283.87   10.80
  -1 -10   1  282.37   12.30
   0  10  -1    1.40    2.50
   0  10  -1    0.20    2.30
   0 -10   1    3.30    2.20
   0 -10   1    1.80    2.40
  -1  10  -1  126.59    8.90
  -1  10  -1  117.19    6.50
   1 -10   1  111.99    7.10
   1 -10   1  123.49    8.50
  -2  10  -1  405.66   12.40
  -2  10  -1  427.56   16.20
   2 -10   1  398.46   13.10
   2 -10   1  405.06   15.70
  -3  10  -1  533.15   18.40
  -3  10  -1  537.85   14.70
   3 -10   1  536.15   15.10
   3 -10   1  533.35   18.20
  -4  10  -1    1.30    2.40
  -4  10  -1    3.20    2.00
   4 -10   1   -0.70    2.30
   4 -10   1    2.70    1.90
  -5  10  -1  971.30   22.30
  -6  10  -1  505.45   15.20
   6 -10   1  514.65   18.60
   6 -10   1  499.65   15.10
  -7  10  -1  195.68    9.40
   7 -10   1  182.28   10.80
   7 -10   1  177.18    8.90
  -8  10  -1   -0.50    2.50
   8 -10   1    0.50    2.70
  -9  10  -1  161.48    9.20
   9 -10   1  146.99   10.50
   9 -10   1  158.98    8.40
  10 -10   1  344.47   16.40
  10 -10   1  358.76   11.80
   7   9  -1    6.70    3.50
   7   9  -1   17.70    4.80
  -7  -9   1   17.60    4.00
   6   9  -1  103.49    7.70
   6   9  -1   92.69    8.50
  -6  -9   1   97.69    7.70
   5   9  -1   -0.70    2.90
   5   9  -1    4.80    2.50
  -5  -9   1    3.40    2.70
  -5  -9   1    0.50    2.80
   4   9  -1    1.20    2.80
   4   9  -1    2.00    2.30
  -4  -9   1    3.10    2.90
  -4  -9   1    2.30    2.50
   3   9  -1  452.25   16.50
   3   9  -1  439.36   15.30
   3   9  -1  423.06   14.20
  -3  -9   1  424.26   15.40
  -3  -9   1  446.46   14.20
   2   9  -1  538.95   15.40
   2   9  -1  499.05   17.00
   2   9  -1  546.05   17.20
  -2  -9   1  565.64   15.50
  -2  -9   1  542.75   17.00
   1   9  -1   -1.70    1.90
   1   9  -1    0.30    1.70
   1   9  -1    2.00    2.10
  -1  -9   1   -0.50    2.00
  -1  -9   1   -2.20    1.60
   0   9  -1  152.48    7.10
   0   9  -1  146.19    8.50
   0  -9   1  133.39    7.60
   0  -9   1  135.29    8.20
  -1   9  -1   49.99    5.50
  -1   9  -1   51.19    4.30
   1  -9   1   46.50    4.70
   1  -9   1   46.20    5.30
  -2   9  -1  820.12   22.40
  -2   9  -1  838.62   18.80
   2  -9   1  800.42   22.00
  -3   9  -1  112.69    6.30
  -3   9  -1  120.49    8.20
   3  -9   1  112.69    7.70
   3  -9   1  116.29    6.30
  -4   9  -1  149.69    7.10
   4  -9   1  155.28    9.00
   4  -9   1  143.29    6.70
  -5   9  -1 1616.14   34.70
   5  -9   1 1570.44   29.90
   5  -9   1 1579.44   35.30
  -6   9  -1  159.08    8.00
   6  -9   1  149.29    6.80
   6  -9   1  178.08   10.00
  -7   9  -1   21.70    3.80
   7  -9   1   28.40    3.50
  -8   9  -1    5.50    2.90
   8  -9   1    4.60    2.00
   8  -9   1    9.00    3.20
  -9   9  -1  374.46   14.20
   9  -9   1  360.86   15.40
   9  -9   1  363.46   13.10
 -10   9  -1  284.17   12.90
  10  -9   1  276.67   14.10
  10  -9   1  271.77   10.20
 -11   9  -1   71.39    7.40
  11  -9   1   47.70    5.50
  11  -9   1   70.89    7.90
   8   8  -1  239.68   11.30
   8   8  -1  252.87   14.00
  -8  -8   1  231.58   12.60
   7   8  -1   62.19    7.60
   7   8  -1   61.39    6.10
  -7  -8   1   66.09    7.20
   6   8  -1    1.20    2.30
   6   8  -1   -3.80    2.00
  -6  -8   1    1.70    2.50
   5   8  -1  342.27   12.80
  -5  -8   1  346.07   21.10
  -5  -8   1  359.96   13.50
   4   8  -1  552.84   16.70
   4   8  -1  563.24   18.60
  -4  -8   1  546.55   16.40
  -4  -8   1  561.34   18.00
   3   8  -1  518.65   17.00
   3   8  -1  492.65   15.50
  -3  -8   1  513.45   16.40
  -3  -8   1  509.25   14.90
   2   8  -1   89.09    6.70
   2   8  -1  100.59    6.30
   2   8  -1  107.39    6.90
  -2  -8   1   99.49    6.20
  -2  -8   1   89.99    6.60
   1   8  -1  254.67    9.20
   1   8  -1  254.37   10.60
   1   8  -1  250.87   10.50
  -1  -8   1  258.07    9.20
  -1  -8   1  247.88   10.10
   0   8  -1 1449.06   30.70
   0   8  -1 1426.16   27.60
   0  -8   1 1422.96   30.30
  -1   8  -1  942.11   23.10
  -1   8  -1  943.71   19.90
  -1   8  -1  920.21   19.50
   1  -8   1  919.61   20.60
   1  -8   1  949.21   22.90
  -2   8  -1   38.50    4.50
  -2   8  -1   36.50    3.40
  -2   8  -1   42.00    4.00
   2  -8   1   36.90    4.90
   2  -8   1   35.00    3.90
  -3   8  -1  681.73   16.50
  -3   8  -1  734.33   16.60
  -3   8  -1  720.63   16.70
   3  -8   1  719.83   16.30
   3  -8   1  683.13   16.10
   3  -8   1  727.83   19.70
  -4   8  -1 1440.96   27.80
  -4   8  -1 1409.16   26.80
   4  -8   1 1411.56   26.70
   4  -8   1 1427.16   31.20
  -5   8  -1  399.16   12.20
  -5   8  -1  380.96   10.90
   5  -8   1  406.46   11.00
   5  -8   1  369.76   13.80
  -6   8  -1   -1.10    1.50
  -6   8  -1   -0.10    2.00
   6  -8   1    2.40    2.20
   6  -8   1   -3.60    1.30
  -7   8  -1  218.98    9.40
  -7   8  -1  233.78   10.10
   7  -8   1  234.18    8.30
   7  -8   1  238.28   11.40
  -8   8  -1  819.12   21.40
   8  -8   1  777.32   22.90
   8  -8   1  805.02   18.20
  -9   8  -1  188.68   10.00
   9  -8   1  184.58    8.00
   9  -8   1  186.18   10.80
 -10   8  -1   -5.00    2.30
  10  -8   1    1.60    2.20
  10  -8   1    2.30    2.60
 -11   8  -1  253.17   13.00
  11  -8   1  277.27   10.80
  11  -8   1  268.37   13.50
   9   7  -1   15.10    4.50
   9   7  -1    9.10    4.20
  -9  -7   1   17.30    4.10
   8   7  -1   57.99    5.70
   8   7  -1   64.99    7.60
  -8  -7   1   58.59    7.20
   7   7  -1   43.20    6.30
   7   7  -1   31.60    4.50
  -7  -7   1   34.90    6.40
   6   7  -1  144.89    7.80
   6   7  -1  154.18   11.70
  -6  -7   1  149.39    8.90
   5   7  -1  167.98    9.90
   5   7  -1  184.58    8.60
  -5  -7   1  169.48    9.10
  -5  -7   1  185.88    9.90
   4   7  -1  494.05   15.00
   4   7  -1  480.95   16.20
  -4  -7   1  486.55   15.80
  -4  -7   1  488.15   14.80
   3   7  -1   73.99    6.00
   3   7  -1   82.49    6.90
  -3  -7   1   74.29    6.40
  -3  -7   1   78.69    5.90
   2   7  -1    9.50    2.70
   2   7  -1    1.00    1.80
  -2  -7   1    9.90    2.70
  -2  -7   1    1.40    1.60
   1   7  -1   18.90    3.20
   1   7  -1   22.50    3.50
   1   7  -1   21.60    2.90
   1   7  -1   19.40    2.80
  -1  -7   1   24.80    3.60
  -1  -7   1   20.30    2.90
  -1  -7   1   22.30    3.50
   0   7  -1  675.33   15.60
   0   7  -1  732.03   18.20
   0  -7   1  697.93   17.70
   0  -7   1  748.43   18.50
   0  -7   1  718.83   17.00
  -1   7  -1  487.95   12.10
  -1   7  -1  491.55   12.80
  -1   7  -1  508.95   15.00
   1  -7   1  478.15   14.50
   1  -7   1  494.45   12.70
  -2   7  -1  179.08    6.60
  -2   7  -1  170.28    6.80
   2  -7   1  180.88    6.70
  -3   7  -1  103.29    6.40
  -3   7  -1   99.89    5.00
  -3   7  -1   94.69    4.80
   3  -7   1  100.89    5.00
   3  -7   1  102.49    5.10
   3  -7   1  105.49    6.40
  -4   7  -1  342.57   10.40
   4  -7   1  328.47   10.10
   4  -7   1  331.37    9.30
   4  -7   1  359.16   12.30
  -5   7  -1  500.75   13.70
   5  -7   1  492.25   11.90
   5  -7   1  482.65   15.20
  -6   7  -1   29.40    3.20
  -6   7  -1   30.90    4.60
   6  -7   1   35.20    5.10
   6  -7   1   27.70    4.30
  -7   7  -1  534.05   13.40
  -7   7  -1  544.75   15.90
   7  -7   1  550.04   13.90
   7  -7   1  563.04   17.40
  -8   7  -1  245.38   10.70
   8  -7   1  267.47   11.80
   8  -7   1  245.28    8.80
  -9   7  -1    0.80    2.00
   9  -7   1   -1.70    1.80
   9  -7   1   -0.30    2.20
  10  -7   1   20.60    3.60
  10  -7   1   21.00    4.40
 -11   7  -1  101.79    8.60
  11  -7   1  106.69    8.40
  11  -7   1  100.19    7.00
 -12   7  -1  269.47   13.70
  12  -7   1  262.67   13.40
  12  -7   1  241.28   11.20
  10   6  -1  222.18   10.30
  10   6  -1  268.37   17.10
 -10  -6   1  242.98   13.50
   9   6  -1  210.08   12.40
   9   6  -1  204.78    9.50
  -9  -6   1  204.88   12.00
   8   6  -1   52.29    5.20
   8   6  -1   56.29    6.90
  -8  -6   1   70.29    7.00
   7   6  -1   22.60    3.80
  -7  -6   1   29.10    5.20
   6   6  -1 1297.07   30.60
   6   6  -1 1323.07   31.20
  -6  -6   1 1281.67   29.30
   5   6  -1 1603.84   34.50
   5   6  -1 1576.14   30.90
  -5  -6   1 1583.74   32.60
  -5  -6   1 1547.95   33.50
   4   6  -1    9.10    2.80
   4   6  -1   12.30    2.60
  -4  -6   1    9.60    2.90
  -4  -6   1   13.70    3.10
   3   6  -1  182.68    8.60
   3   6  -1  200.48    8.00
  -3  -6   1  197.28    8.60
  -3  -6   1  194.78    8.10
   2   6  -1  482.95   14.00
   2   6  -1  519.75   13.50
   2   6  -1  472.15   12.60
  -2  -6   1  498.95   12.80
  -2  -6   1  499.45   13.80
   1   6  -1  596.04   15.00
   1   6  -1  592.54   15.00
   1   6  -1  581.84   13.60
  -1  -6   1  594.44   14.80
  -1  -6   1  601.94   14.70
   0   6  -1  163.58    7.30
   0   6  -1  162.38    6.70
   0   6  -1  170.68    6.40
   0   6  -1  172.98    7.10
   0  -6   1  173.78    6.40
   0  -6   1  165.98    6.90
   0  -6   1  172.38    7.40
  -1   6  -1 1049.79   20.20
  -1   6  -1 1073.39   20.10
   1  -6   1 1037.30   22.10
   1  -6   1 1041.80   20.30
  -2   6  -1  566.04   12.60
  -2   6  -1  567.04   12.80
  -2   6  -1  558.34   12.90
   2  -6   1  561.54   12.80
   2  -6   1  556.24   12.50
   2  -6   1  555.64   14.70
  -3   6  -1 1967.00   33.60
  -3   6  -1 1936.91   32.30
   3  -6   1 1917.51   32.20
   3  -6   1 1924.11   35.80
   3  -6   1 1909.51   35.70
  -4   6  -1   12.80    1.90
  -4   6  -1   12.00    2.30
   4  -6   1   14.40    2.00
   4  -6   1   11.30    2.70
   4  -6   1   12.60    2.20
  -5   6  -1  304.47    8.50
  -5   6  -1  307.37   10.10
   5  -6   1  313.67   11.20
   5  -6   1  317.27    8.60
  -6   6  -1  449.95   13.40
  -6   6  -1  449.95   11.30
   6  -6   1  433.06   14.10
   6  -6   1  458.45   11.30
  -7   6  -1 1934.31   34.30
  -7   6  -1 2005.50   38.10
   7  -6   1 2002.90   39.20
  -8   6  -1   94.09    6.70
  -8   6  -1   83.79    5.80
   8  -6   1   93.19    5.30
   8  -6   1   90.19    7.00
  -9   6  -1  261.07   11.70
   9  -6   1  268.97   11.80
   9  -6   1  264.17    9.60
 -10   6  -1  693.63   24.00
  10  -6   1  665.03   17.60
  10  -6   1  664.83   20.50
 -11   6  -1  153.08    9.90
  11  -6   1  132.09    8.00
  11  -6   1  142.49    9.50
 -12   6  -1    2.00    2.90
  12  -6   1   -1.10    2.80
  12  -6   1   -6.70    3.90
  10   5  -1   50.89    5.20
  10   5  -1   62.29    8.10
 -10  -5   1   52.69    7.20
   9   5  -1   38.00    4.50
   9   5  -1   28.10    5.30
  -9  -5   1   35.30    6.00
   8   5  -1    1.80    2.60
   8   5  -1   -1.50    1.90
  -8  -5   1   -1.00    2.60
   7   5  -1  447.76   13.20
   7   5  -1  450.65   16.50
  -7  -5   1  440.86   15.30
   6   5  -1  468.85   13.10
   6   5  -1  438.56   15.40
  -6  -5   1  470.15   15.00
   5   5  -1   32.60    4.50
   5   5  -1   39.50    3.90
   5   5  -1   33.50    3.30
  -5  -5   1   25.10    3.20
  -5  -5   1   37.90    4.30
   4   5  -1  203.58    7.40
   4   5  -1  210.08    7.70
   4   5  -1  209.88    9.10
  -4  -5   1  210.08    9.00
  -4  -5   1  210.18    7.60
  -4  -5   1  204.28    8.30
   3   5  -1  289.37    8.90
   3   5  -1  305.97   10.90
   3   5  -1  279.17   10.00
  -3  -5   1  270.67    8.70
  -3  -5   1  275.47    9.20
  -3  -5   1  289.27    9.90
   2   5  -1  277.27    8.80
   2   5  -1  271.87    9.10
   2   5  -1  274.77    8.50
   2   5  -1  268.97    9.20
   2   5  -1  249.48    8.10
  -2  -5   1  275.67    9.10
   1   5  -1  470.05   11.30
   1   5  -1  473.65   12.10
   1   5  -1  478.25   12.30
   1   5  -1  487.85   12.10
  -1  -5   1  483.95   11.50
  -1  -5   1  486.35   12.00
   0   5  -1  424.26   11.60
   0   5  -1  434.06   10.60
   0   5  -1  428.06   11.10
   0   5  -1  413.56   10.20
   0   5  -1  430.76   10.20
   0  -5   1  423.46   10.20
   0  -5   1  437.66   11.70
   0  -5   1  427.66   10.60
  -1   5  -1 2143.29   34.80
  -1   5  -1 2184.98   36.70
  -1   5  -1 2112.99   34.70
  -1   5  -1 2108.99   34.90
   1  -5   1 2127.99   34.90
   1  -5   1 2083.49   34.60
  -2   5  -1 1004.10   19.20
  -2   5  -1 1012.00   20.80
  -2   5  -1 1042.40   18.50
   2  -5   1 1023.90   19.10
   2  -5   1 1020.70   18.40
   2  -5   1 1009.00   20.80
  -3   5  -1   53.79    3.80
  -3   5  -1   51.09    3.90
  -3   5  -1   52.49    3.60
   3  -5   1   57.29    4.20
   3  -5   1   52.39    3.40
   3  -5   1   48.40    2.90
  -4   5  -1   75.49    3.60
   4  -5   1   65.29    4.20
   4  -5   1   74.19    4.80
   4  -5   1   77.79    3.60
  -5   5  -1 1121.19   20.80
  -5   5  -1 1120.59   23.30
   5  -5   1 1176.48   21.10
   5  -5   1 1142.49   24.40
   5  -5   1 1237.48   26.50
  -6   5  -1   40.30    3.10
  -6   5  -1   43.10    4.40
   6  -5   1   39.30    5.40
   6  -5   1   40.40    3.20
  -7   5  -1  570.24   16.00
  -7   5  -1  527.35   13.00
   7  -5   1  549.05   16.00
  -8   5  -1    1.90    2.50
  -8   5  -1    0.10    1.90
   8  -5   1    2.10    1.80
   8  -5   1    7.50    2.80
  -9   5  -1  724.93   20.80
   9  -5   1  758.42   18.20
   9  -5   1  745.53   20.80
 -10   5  -1  540.15   18.50
  10  -5   1  515.85   15.00
  10  -5   1  478.05   16.80
 -11   5  -1   54.99    6.50
  11  -5   1   47.20    5.40
 -12   5  -1    2.20    3.20
  12  -5   1   11.30    3.40
  12  -5   1    1.40    3.10
  11   4  -1  141.59    7.90
  11   4  -1  148.29   11.10
 -11  -4   1  137.69   10.40
  10   4  -1    5.10    2.30
  10   4  -1   -2.20    3.00
 -10  -4   1   11.90    3.70
   9   4  -1   76.19    7.30
  -9  -4   1   64.89    6.90
   8   4  -1  488.85   17.10
   8   4  -1  499.55   13.70
  -8  -4   1  436.26   16.00
   7   4  -1  533.05   17.10
   7   4  -1  527.05   13.90
  -7  -4   1  522.25   16.60
   6   4  -1   57.09    5.40
   6   4  -1   54.99    4.10
  -6  -4   1   58.39    5.30
  -6  -4   1   51.59    4.10
   5   4  -1  437.76   13.70
   5   4  -1  428.96   11.00
   5   4  -1  431.96   11.60
  -5  -4   1  413.66   17.50
  -5  -4   1  414.16   11.40
   4   4  -1  500.95   14.20
   4   4  -1  484.05   11.70
   4   4  -1  505.15   12.10
  -4  -4   1  501.45   12.00
  -4  -4   1  505.05   13.80
  -4  -4   1  505.05   13.50
   3   4  -1 5491.15   83.89
   3   4  -1 5390.06   81.09
   3   4  -1 5286.47   82.29
   3   4  -1 5467.15   83.69
   3   4  -1 5332.47   80.99
  -3  -4   1 5252.97   85.69
  -3  -4   1 5199.88   80.89
  -3  -4   1 5383.66   83.29
   2   4  -1   40.30    2.90
   2   4  -1   34.00    2.90
   2   4  -1   35.30    3.00
   2   4  -1   30.10    3.10
   2   4  -1   40.20    3.00
  -2  -4   1   36.90    3.50
  -2  -4   1   39.50    2.90
  -2  -4   1   34.90    2.90
   1   4  -1 2036.00   33.40
   1   4  -1 2060.59   34.00
   1   4  -1 2073.79   33.90
   1   4  -1 2014.30   34.20
   1   4  -1 2029.10   33.60
  -1  -4   1 2058.59   33.80
  -1  -4   1 2012.10   33.40
  -1  -4   1 2051.69   34.00
   0   4  -1 6126.79   89.79
   0   4  -1 5926.31   90.39
   0  -4   1 6091.69   89.69
  -1   4  -1 1294.17   21.80
  -1   4  -1 1268.57   21.10
  -1   4  -1 1258.37   21.50
  -1   4  -1 1228.38   22.70
   1  -4   1 1238.58   21.00
   1  -4   1 1238.88   21.50
   1  -4   1 1223.38   22.70
  -2   4  -1 1147.99   20.60
  -2   4  -1 1166.38   19.40
  -2   4  -1 1162.48   21.90
   2  -4   1 1147.09   19.30
   2  -4   1 1179.48   22.90
   2  -4   1 1158.98   21.90
  -3   4  -1 2979.50   47.40
  -3   4  -1 2968.60   48.60
  -3   4  -1 3027.90   45.30
   3  -4   1 2977.80   49.10
   3  -4   1 2962.60   45.10
   3  -4   1 2961.20   47.20
  -4   4  -1 3999.80   59.99
  -4   4  -1 4041.10   62.89
  -4   4  -1 3934.61   63.49
   4  -4   1 4032.80   60.29
   4  -4   1 3960.20   63.69
   4  -4   1 3977.60   65.89
  -5   4  -1  744.73   16.70
  -5   4  -1  704.93   14.10
   5  -4   1  704.43   16.80
   5  -4   1  716.33   16.50
   5  -4   1  711.63   14.30
  -6   4  -1   13.20    2.70
  -6   4  -1   10.40    1.80
   6  -4   1   17.20    2.90
   6  -4   1   11.00    2.00
  -7   4  -1  697.93   15.80
  -7   4  -1  714.83   18.40
   7  -4   1  731.93   19.00
  -8   4  -1  237.88   10.60
   8  -4   1  241.58   10.10
   8  -4   1  245.88    9.00
  -9   4  -1 1306.47   30.30
   9  -4   1 1285.57   29.00
   9  -4   1 1295.77   27.40
 -10   4  -1    4.90    3.10
  10  -4   1    3.70    2.40
  10  -4   1    5.50    2.70
 -11   4  -1  135.59    9.50
  11  -4   1  124.49    8.10
  11  -4   1  142.69    9.00
 -12   4  -1  313.97   15.00
  12  -4   1  326.97   13.90
  12  -4   1  328.57   13.60
  11   3  -1    5.90    2.30
  11   3  -1    8.20    3.60
 -11  -3   1    4.80    3.00
  10   3  -1  141.39    9.50
  10   3  -1  132.39    7.10
 -10  -3   1  149.09    9.90
   9   3  -1   57.29    6.30
   9   3  -1   69.49    5.00
  -9  -3   1   81.99    8.30
   8   3  -1  202.28    8.00
   8   3  -1  217.88   10.60
  -8  -3   1  208.38   10.50
   7   3  -1    1.80    1.60
   7   3  -1    3.50    2.10
  -7  -3   1    5.60    2.60
  -7  -3   1    5.60    1.90
   6   3  -1  133.79    5.70
   6   3  -1  123.99    7.20
  -6  -3   1  122.39    7.00
   5   3  -1  443.16   13.20
   5   3  -1  471.45   11.10
  -5  -3   1  433.36   10.70
  -5  -3   1  445.06   12.90
   4   3  -1   51.49    3.80
   4   3  -1   49.10    3.30
   4   3  -1   50.69    4.10
  -4  -3   1   53.19    4.20
  -4  -3   1   58.19    4.90
  -4  -3   1   46.30    3.10
   3   3  -1  745.83   14.70
   3   3  -1  776.62   16.50
   3   3  -1  747.03   14.40
  -3  -3   1  732.23   14.40
  -3  -3   1  741.13   15.90
  -3  -3   1  767.62   21.30
  -3  -3   1  769.12   16.60
   2   3  -1   50.39    2.70
   2   3  -1   39.20    2.80
   2   3  -1   42.90    3.10
   2   3  -1   44.10    2.70
   2   3  -1   42.60    3.10
  -2  -3   1   42.20    3.00
  -2  -3   1   39.90    2.50
  -2  -3   1   44.50    3.10
   1   3  -1 5255.87   79.19
  -1  -3   1 5394.96   79.29
   0   3  -1    2.60    1.00
   0   3  -1    2.20    1.10
   0   3  -1    2.70    1.10
   0  -3   1    2.10    1.10
   0  -3   1    6.40    1.20
   0  -3   1    3.90    1.10
  -1   3  -1  827.92   15.50
  -1   3  -1  841.22   14.90
  -1   3  -1  810.12   13.70
   1  -3   1  834.72   15.60
   1  -3   1  805.82   13.70
   1  -3   1  813.12   14.70
  -2   3  -1   40.30    1.90
  -2   3  -1   39.70    2.70
  -2   3  -1   36.50    3.10
   2  -3   1   41.60    2.60
   2  -3   1   36.10    2.70
   2  -3   1   38.30    1.80
  -3   3  -1  464.75    8.90
  -3   3  -1  470.95   11.10
  -3   3  -1  459.95   10.80
   3  -3   1  466.25   11.30
   3  -3   1  473.45    9.00
   3  -3   1  469.05   10.80
  -4   3  -1 1292.87   23.70
  -4   3  -1 1228.28   21.10
  -4   3  -1 1251.47   26.30
   4  -3   1 1278.37   23.80
   4  -3   1 1247.08   21.20
  -5   3  -1  118.49    5.80
  -5   3  -1  114.19    5.50
  -5   3  -1  117.49    4.50
   5  -3   1  110.89    5.60
   5  -3   1  113.99    4.60
   5  -3   1  115.29    5.80
  -6   3  -1    1.70    1.40
  -6   3  -1    4.10    2.00
   6  -3   1    1.90    1.40
   6  -3   1    1.30    1.40
  -7   3  -1  851.31   20.60
  -7   3  -1  853.01   18.30
   7  -3   1  843.82   19.90
   7  -3   1  847.52   18.50
  -8   3  -1  591.84   17.50
   8  -3   1  606.34   16.80
   8  -3   1  611.14   15.60
  -9   3  -1   16.20    3.80
   9  -3   1   13.70    3.00
   9  -3   1   11.00    3.10
 -10   3  -1   63.09    7.60
  10  -3   1   53.09    5.10
  10  -3   1   62.69    5.70
 -11   3  -1   85.89    8.10
  11  -3   1   69.99    6.40
  11  -3   1   74.79    6.70
 -12   3  -1    8.90    3.90
  12  -3   1    1.50    3.40
  12  -3   1    0.20    3.40
  12   2  -1   33.60    4.50
  12   2  -1   34.90    6.30
 -12  -2   1   40.60    6.80
  11   2  -1   18.20    3.30
  11   2  -1   23.30    5.10
 -11  -2   1   19.80    4.70
  10   2  -1  362.56   15.50
 -10  -2   1  340.77   14.90
   9   2  -1  647.24   16.00
   9   2  -1  635.74   19.70
  -9  -2   1  617.74   19.60
   8   2  -1  239.78    8.40
   8   2  -1  243.18   11.00
  -8  -2   1  244.28   11.10
  -8  -2   1  231.98    8.40
   7   2  -1  199.98    9.30
   7   2  -1  205.28    8.70
  -7  -2   1  202.78    9.30
  -7  -2   1  192.08    7.00
   6   2  -1 1415.36   25.50
   6   2  -1 1442.26   32.50
  -6  -2   1 1417.46   25.50
   5   2  -1  968.10   21.00
   5   2  -1  934.41   17.90
  -5  -2   1  998.80   21.00
  -5  -2   1  949.21   17.90
   4   2  -1 2115.79   36.20
   4   2  -1 2141.29   33.80
   4   2  -1 2051.69   35.90
  -4  -2   1 2096.19   36.40
  -4  -2   1 2089.19   33.40
   3   2  -1 1738.33   27.70
   3   2  -1 1760.12   30.30
   3   2  -1 1759.92   30.00
   3   2  -1 1736.43   29.80
  -3  -2   1 1749.92   30.00
  -3  -2   1 1771.42   30.30
  -3  -2   1 1754.32   27.70
   2   2  -1 1193.18   18.90
   2   2  -1 1183.98   20.60
   2   2  -1 1157.18   20.40
   2   2  -1 1206.88   21.00
   2   2  -1 1157.38   18.90
  -2  -2   1 1158.88   18.90
  -2  -2   1 1151.58   20.70
  -2  -2   1 1179.78   20.50
   0   2  -1  154.38    3.70
   0   2  -1  154.88    3.80
   0   2  -1  156.68    4.10
   0   2  -1  148.19    4.10
   0   2  -1  163.28    4.30
   0  -2   1  159.58    4.20
   0  -2   1  157.48    4.20
   0  -2   1  157.28    3.80
   0  -2   1  154.18    4.20
  -1   2  -1  242.38    4.40
  -1   2  -1  240.18    5.90
  -1   2  -1  238.68    5.70
   1  -2   1  246.68    4.40
   1  -2   1  246.58    5.70
  -2   2  -1  624.74   12.40
  -2   2  -1  619.54   12.20
  -2   2  -1  636.14   10.30
   2  -2   1  643.84   10.40
   2  -2   1  670.53   16.60
   2  -2   1  644.44   12.40
  -3   2  -1 1458.25   25.50
  -3   2  -1 1533.25   25.80
  -3   2  -1 1473.45   23.50
   3  -2   1 1503.25   25.60
   3  -2   1 1485.55   23.60
   3  -2   1 1489.25   25.60
  -4   2  -1  272.17    8.30
  -4   2  -1  267.07    6.70
  -4   2  -1  256.57    7.70
   4  -2   1  289.97    9.60
   4  -2   1  265.47    7.90
   4  -2   1  267.87    7.80
  -5   2  -1  716.83   15.80
  -5   2  -1  714.43   16.30
  -5   2  -1  713.23   14.60
   5  -2   1  712.13   14.60
   5  -2   1  689.43   16.10
  -6   2  -1 3138.19   53.19
  -6   2  -1 3222.08   52.79
  -6   2  -1 3132.39   53.69
   6  -2   1 2988.30   53.29
   6  -2   1 3196.68   52.29
   6  -2   1 3195.38   51.09
  -7   2  -1  822.92   18.70
  -7   2  -1  855.91   20.60
   7  -2   1  839.52   18.60
   7  -2   1  805.22   19.00
   7  -2   1  813.02   17.90
  -8   2  -1   45.90    5.50
   8  -2   1   46.50    4.40
   8  -2   1   37.70    4.60
  -9   2  -1  696.13   20.10
   9  -2   1  676.23   18.20
   9  -2   1  645.54   18.00
  10  -2   1  291.77   11.80
  10  -2   1  288.27   11.70
 -11   2  -1  105.89    8.50
  11  -2   1  103.99    7.80
  11  -2   1   99.69    7.30
 -12   2  -1    6.80    3.80
  12  -2   1    5.20    3.40
  12  -2   1   -2.70    3.10
  12   1  -1    1.80    2.80
  12   1  -1    4.40    2.30
 -12  -1   1    2.10    3.10
  11   1  -1  239.08   12.70
  11   1  -1  251.37    9.90
 -11  -1   1  255.37   13.40
  10   1  -1   75.59    6.40
  10   1  -1   84.39    7.30
 -10  -1   1   81.39    7.40
   9   1  -1   74.09    6.70
   9   1  -1   70.09    5.00
  -9  -1   1   80.19    6.80
   8   1  -1  153.18    8.40
   8   1  -1  155.08    6.60
  -8  -1   1  154.48    8.50
  -8  -1   1  144.59    6.50
   7   1  -1  169.78    8.20
   7   1  -1  173.58    6.60
  -7  -1   1  170.38    8.30
   6   1  -1  754.42   15.60
   6   1  -1  795.92   18.70
  -6  -1   1  768.72   15.70
  -6  -1   1  793.42   18.70
   5   1  -1  161.58    6.80
   5   1  -1  173.68    5.50
   5   1  -1  168.88    6.70
   5   1  -1  182.08    7.30
  -5  -1   1  172.98    6.90
  -5  -1   1  170.38    7.00
  -5  -1   1  175.88    5.50
   4   1  -1  134.59    6.30
   4   1  -1  130.19    4.20
   4   1  -1  133.89    5.70
  -4  -1   1  132.69    4.20
  -4  -1   1  128.49    5.50
  -4  -1   1  126.69    6.50
   3   1  -1  270.17    7.40
   3   1  -1  269.97    7.60
   3   1  -1  291.07    6.00
  -3  -1   1  274.27    5.80
  -3  -1   1  261.47    7.40
  -3  -1   1  275.37    7.60
   2   1  -1  568.74   11.20
   2   1  -1  559.74    9.20
   2   1  -1  559.54   11.00
  -2  -1   1  563.14    9.20
  -2  -1   1  571.04   11.20
  -2  -1   1  564.74   11.10
   1   1  -1  156.38    4.00
   1   1  -1  158.28    2.90
   1   1  -1  149.49    2.90
   1   1  -1  153.98    3.90
  -1  -1   1  161.68    3.00
  -1  -1   1  155.08    4.60
  -1  -1   1  148.79    3.90
  -2   1  -1  110.69    3.90
  -2   1  -1  107.09    3.40
  -2   1  -1  108.59    4.00
   2  -1   1  110.39    3.00
   2  -1   1  110.19    3.90
   2  -1   1  115.39    4.00
   2  -1   1  110.39    3.40
  -3   1  -1  209.68    6.10
  -3   1  -1  210.58    5.40
  -3   1  -1  213.58    6.40
   3  -1   1  209.48    5.30
   3  -1   1  211.28    6.40
   3  -1   1  213.18    5.50
   3  -1   1  209.58    6.20
  -4   1  -1   43.20    3.40
  -4   1  -1   47.00    2.90
  -4   1  -1   38.90    3.00
   4  -1   1   46.90    3.30
   4  -1   1   47.00    2.80
   4  -1   1   47.30    4.00
   4  -1   1   48.10    2.90
  -5   1  -1   56.99    3.60
  -5   1  -1   63.59    4.40
  -5   1  -1   52.39    4.60
   5  -1   1   57.19    4.20
   5  -1   1   57.49    3.50
   5  -1   1   54.39    3.60
   5  -1   1   60.29    3.90
  -6   1  -1 3025.50   51.09
  -6   1  -1 2978.40   49.10
  -6   1  -1 2971.90   49.60
   6  -1   1 2940.41   48.60
   6  -1   1 2949.41   49.60
   6  -1   1 2979.70   49.60
  -7   1  -1   82.39    6.00
   7  -1   1   80.49    5.30
   7  -1   1   87.39    5.50
  -8   1  -1   83.99    6.80
   8  -1   1   95.99    7.20
  -9   1  -1   18.00    3.80
   9  -1   1   21.80    3.80
   9  -1   1   18.20    3.60
 -10   1  -1  373.36   17.50
  10  -1   1  373.06   14.00
  10  -1   1  364.06   13.10
 -11   1  -1    3.10    3.00
  11  -1   1    1.90    2.70
  11  -1   1    9.10    2.90
 -12   1  -1    2.50    2.80
  12  -1   1   -4.20    2.50
  12  -1   1    4.30    3.20
  12   0  -1   97.99    8.50
  12   0  -1   84.39    6.30
 -12   0   1   92.69    8.40
  11   0  -1  521.05   18.90
  11   0  -1  515.15   15.00
 -11   0   1  526.75   19.00
  10   0  -1   88.69    7.10
 -10   0   1   71.69   10.90
   9   0  -1  152.58    6.90
   9   0  -1  154.68    8.70
  -9   0   1  152.58    8.90
   8   0  -1 1067.89   24.80
   8   0  -1 1058.69   21.50
  -8   0   1 1069.49   21.80
  -8   0   1 1043.10   25.00
   7   0  -1 1480.55   27.60
   7   0  -1 1545.55   31.40
  -7   0   1 1609.34   31.60
   6   0  -1    3.50    1.40
   6   0  -1    1.80    1.60
  -6   0   1    1.60    1.60
  -6   0   1    3.70    1.30
   5   0  -1  395.66   10.90
   5   0  -1  370.86    8.90
  -5   0   1  367.26   10.30
  -5   0   1  397.46   10.90
  -5   0   1  371.86    8.90
   4   0  -1 2700.83   42.60
   4   0  -1 2659.63   42.60
   4   0  -1 2536.25   40.00
  -4   0   1 2613.04   40.20
  -4   0   1 2568.24   42.30
  -4   0   1 2611.44   42.50
   3   0  -1  515.65    9.40
   3   0  -1  515.35   10.90
   3   0  -1  520.05   11.10
  -3   0   1  503.25   11.00
  -3   0   1  527.05    9.50
  -3   0   1  529.45   11.10
  -2   0  -1   61.39    2.70
  -2   0  -1   64.99    2.90
  -2   0  -1   62.49    3.00
   2   0   1   64.29    3.00
   2   0   1   68.39    3.20
   2   0   1   59.29    2.70
   2   0   1   59.19    2.60
  -3   0  -1 1790.52   29.60
  -3   0  -1 1776.82   29.30
  -3   0  -1 1831.32   31.10
  -3   0  -1 1785.02   29.90
   3   0   1 1799.62   31.20
   3   0   1 1784.32   29.60
   3   0   1 1757.12   29.90
   3   0   1 1830.32   29.20
  -4   0  -1 2893.51   46.10
  -4   0  -1 2833.62   45.00
  -4   0  -1 2805.52   45.00
   4   0   1 2842.42   44.80
   4   0   1 2788.42   45.00
   4   0   1 2634.74   48.40
   4   0   1 2853.51   45.20
  -5   0  -1 2467.75   41.40
  -5   0  -1 2416.76   42.30
  -5   0  -1 2399.06   44.30
   5   0   1 2450.75   41.10
   5   0   1 2606.24   45.60
   5   0   1 2480.95   41.50
  -6   0  -1  588.14   14.60
  -6   0  -1  592.64   15.70
   6   0   1  614.94   15.20
   6   0   1  598.14   14.70
  -7   0  -1   41.50    4.70
   7   0   1   41.30    3.90
   7   0   1   37.00    4.10
  -8   0  -1 1507.35   32.80
   8   0   1 1554.04   32.00
  -9   0  -1  515.55   17.50
   9   0   1  504.95   15.30
   9   0   1  519.45   16.50
 -10   0  -1    5.30    3.00
  10   0   1    3.10    2.30
  10   0   1    1.90    2.70
 -11   0  -1   30.20    5.50
  11   0   1   39.00    6.90
  11   0   1   35.80    4.90
 -12   0  -1  368.16   16.80
  12   0   1  368.66   14.60
  12   0   1  374.76   16.20
  13  -1  -1   20.00    5.30
  13  -1  -1   31.50    4.70
 -13   1   1   43.00    8.10
  12  -1  -1   68.59    7.50
  12  -1  -1   70.09    5.80
 -12   1   1   77.59    7.90
  11  -1  -1    1.90    2.00
  11  -1  -1    7.20    3.00
 -11   1   1   12.10    3.90
  10  -1  -1   85.69    5.90
  10  -1  -1   82.49    7.00
 -10   1   1   85.29    7.30
   9  -1  -1  910.61   20.40
   9  -1  -1  961.40   23.50
  -9   1   1  892.81   23.50
   8  -1  -1   10.40    2.40
   8  -1  -1    5.10    2.10
  -8   1   1   16.70    3.30
  -8   1   1    6.10    2.00
   7  -1  -1   15.20    2.90
  -7   1   1   18.50    3.90
   6  -1  -1  246.48    8.70
   6  -1  -1  257.17    7.60
  -6   1   1  239.18    8.40
  -6   1   1  254.47    8.90
  -6   1   1  233.68    7.40
   5  -1  -1 2447.35   38.80
   5  -1  -1 2460.45   40.70
   5  -1  -1 2408.26   40.60
  -5   1   1 2298.47   42.90
  -5   1   1 2457.65   38.90
   4  -1  -1   20.10    2.20
   4  -1  -1   25.70    2.60
   4  -1  -1   14.90    2.10
  -4   1   1   18.10    2.10
  -4   1   1   14.30    2.00
  -4   1   1   21.40    2.00
   3  -1  -1  682.63   13.10
   3  -1  -1  682.33   15.10
   3  -1  -1  679.13   12.50
  -3   1   1  695.63   14.60
  -3   1   1  705.93   12.60
  -3   1   1  702.13   13.50
   0  -1  -1  322.17    6.70
   0  -1  -1  323.97    5.30
   0  -1  -1  329.07    6.80
   0   1   1  337.57    5.30
   0   1   1  325.17    6.80
   0   1   1  334.97    6.80
  -1  -1  -1   81.99    3.10
  -1  -1  -1   86.19    3.30
  -1  -1  -1   81.39    2.80
   1   1   1   85.59    2.80
   1   1   1   83.49    3.20
   1   1   1   81.89    3.10
  -2  -1  -1    2.30    1.10
  -2  -1  -1    5.00    1.20
   2   1   1    7.40    1.60
   2   1   1    3.10    1.40
   2   1   1    1.40    1.00
  -3  -1  -1 1125.99   20.60
  -3  -1  -1 1085.69   20.20
  -3  -1  -1 1157.68   20.70
   3   1   1 1113.09   20.70
   3   1   1 1148.59   20.60
   3   1   1 1144.09   20.50
   3   1   1 1094.49   20.40
  -4  -1  -1 1193.18   22.30
  -4  -1  -1 1215.18   22.70
   4   1   1 1212.08   22.40
   4   1   1 1175.98   22.80
   4   1   1 1183.28   22.80
  -5  -1  -1  104.69    5.20
  -5  -1  -1  111.49    5.90
   5   1   1  107.19    5.40
   5   1   1  106.49    5.60
  -6  -1  -1  312.57   10.00
   6   1   1  315.57   10.70
   6   1   1  320.07   10.10
  -7  -1  -1   98.39    6.70
   7   1   1   92.99    5.80
   7   1   1   95.89    6.20
  -8  -1  -1  167.78    9.40
   8   1   1  168.18    8.80
   8   1   1  168.98    8.40
  -9  -1  -1  111.09    8.00
   9   1   1  101.39    7.50
 -10  -1  -1  117.39    8.90
  10   1   1  115.09    8.60
  10   1   1  114.79    7.50
 -11  -1  -1   19.40    4.50
  11   1   1    6.00    3.20
  11   1   1   16.00    4.30
 -12  -1  -1  146.69   15.90
  12   1   1  138.29    9.90
  13  -2  -1  164.88    9.10
  13  -2  -1  180.78   11.60
 -13   2   1  200.58   17.80
  12  -2  -1  110.09    8.80
  12  -2  -1  111.69    7.20
 -12   2   1  120.89    9.10
  11  -2  -1  173.58   10.10
  11  -2  -1  171.88    8.50
 -11   2   1  178.88   10.70
  10  -2  -1  211.48   10.50
  10  -2  -1  207.18    8.90
 -10   2   1  201.68   10.70
   9  -2  -1  908.21   20.70
   9  -2  -1  908.01   22.70
  -9   2   1  910.21   23.30
   8  -2  -1  755.22   17.60
   8  -2  -1  745.83   19.50
  -8   2   1  765.42   19.70
   7  -2  -1  145.79    6.40
   7  -2  -1  155.98    7.30
  -7   2   1  142.89    6.30
  -7   2   1  154.98    7.60
   6  -2  -1  946.01   19.00
   6  -2  -1  949.71   20.10
  -6   2   1  931.91   19.80
  -6   2   1  922.91   21.30
  -6   2   1  956.00   20.40
   5  -2  -1 3979.30   61.79
   5  -2  -1 4036.90   62.89
   5  -2  -1 3962.70   62.79
  -5   2   1 3997.90   63.09
  -5   2   1 3955.60   61.69
   4  -2  -1  848.42   16.40
   4  -2  -1  854.61   16.60
   4  -2  -1  887.61   17.10
  -4   2   1  829.92   16.30
  -4   2   1  865.81   16.90
  -4   2   1  878.21   16.80
   3  -2  -1  341.27    8.40
   3  -2  -1  352.26    7.90
   3  -2  -1  350.76    8.50
  -3   2   1  341.67    8.40
  -3   2   1  353.96    8.30
  -3   2   1  358.86    7.90
   2  -2  -1 2915.11   45.30
   2  -2  -1 3022.90   45.30
   2  -2  -1 2989.20   43.70
  -2   2   1 2881.31   43.60
  -2   2   1 2938.61   45.10
  -2   2   1 2948.80   45.30
   1  -2  -1  307.47    7.10
   1  -2  -1  310.17    7.30
   1  -2  -1  305.47    5.10
  -1   2   1  302.07    7.30
  -1   2   1  299.67    7.10
  -1   2   1  308.47    5.10
  -1   2   1  292.67    7.10
   0  -2  -1  285.37    7.00
   0  -2  -1  290.47    7.00
   0  -2  -1  285.77    5.20
   0   2   1  284.37    7.00
   0   2   1  287.37    7.00
   0   2   1  284.37    5.20
   0   2   1  289.67    7.10
  -1  -2  -1  205.78    6.00
  -1  -2  -1  199.08    5.00
  -1  -2  -1  203.88    5.90
   1   2   1  204.78    5.00
   1   2   1  199.38    6.10
  -2  -2  -1 1491.05   25.50
  -2  -2  -1 1449.35   25.00
  -2  -2  -1 1479.85   25.80
   2   2   1 1479.55   25.60
   2   2   1 1478.85   24.70
   2   2   1 1518.85   25.90
  -3  -2  -1 1367.36   24.80
  -3  -2  -1 1382.26   24.70
  -3  -2  -1 1371.46   25.30
   3   2   1 1405.36   24.90
   3   2   1 1431.96   25.80
   3   2   1 1350.16   24.50
  -4  -2  -1  496.25   12.80
  -4  -2  -1  479.45   12.70
   4   2   1  500.25   12.40
   4   2   1  503.85   12.80
   4   2   1  487.45   13.00
   4   2   1  497.45   12.40
  -5  -2  -1  867.01   18.70
  -5  -2  -1  863.61   19.60
  -5  -2  -1  893.01   19.80
   5   2   1  874.21   20.00
   5   2   1  887.21   19.00
  -6  -2  -1  950.50   22.30
   6   2   1  987.10   23.30
   6   2   1  991.50   21.40
  -7  -2  -1  487.35   15.40
   7   2   1  464.35   13.70
   7   2   1  460.15   14.90
  -8  -2  -1  163.68    9.30
   8   2   1  163.08    8.30
   8   2   1  156.18    8.90
  -9  -2  -1  371.36   15.30
   9   2   1  386.66   13.30
   9   2   1  370.06   14.80
 -10  -2  -1  240.28   12.40
  10   2   1  214.68   10.30
  10   2   1  203.38   11.40
 -11  -2  -1  131.69    9.80
  11   2   1  156.48    9.20
  11   2   1  132.09   10.20
  13  -3  -1   -2.00    2.30
  13  -3  -1    4.60    3.90
 -13   3   1   -1.90    2.80
  12  -3  -1   61.79    7.00
 -12   3   1   61.59    7.10
  11  -3  -1  252.57   12.00
  11  -3  -1  266.87   11.00
 -11   3   1  279.77   13.10
  10  -3  -1  157.48    8.90
  10  -3  -1  152.98    8.20
 -10   3   1  157.98    9.70
   9  -3  -1   57.59    5.30
   9  -3  -1   65.29    5.20
  -9   3   1   64.59    5.80
   8  -3  -1   -2.10    1.50
  -8   3   1    0.30    2.00
   7  -3  -1  361.56   11.40
   7  -3  -1  371.96   11.20
  -7   3   1  365.76   11.70
   6  -3  -1  854.31   20.40
   6  -3  -1  826.32   18.00
   6  -3  -1  808.02   17.60
  -6   3   1  782.12   17.80
  -6   3   1  766.62   17.40
  -6   3   1  779.02   17.50
   5  -3  -1   40.30    3.40
   5  -3  -1   49.40    3.80
  -5   3   1   37.00    3.20
  -5   3   1   42.40    3.40
   4  -3  -1  109.09    4.90
   4  -3  -1  113.09    4.60
   4  -3  -1  115.59    5.10
  -4   3   1  110.89    4.80
  -4   3   1  117.19    5.10
  -4   3   1  120.79    4.70
   3  -3  -1 1174.18   20.90
   3  -3  -1 1148.69   21.30
   3  -3  -1 1150.78   19.60
  -3   3   1 1188.18   19.60
  -3   3   1 1139.09   20.70
  -3   3   1 1118.99   21.20
   2  -3  -1  711.23   12.40
   2  -3  -1  722.93   14.90
   2  -3  -1  756.82   14.50
  -2   3   1  755.62   15.00
  -2   3   1  741.93   12.50
  -2   3   1  737.53   14.40
   1  -3  -1  246.48    6.80
   1  -3  -1  245.98    7.20
  -1   3   1  244.78    6.80
  -1   3   1  240.48    7.00
  -1   3   1  252.77    7.30
  -1   3   1  251.77    4.90
  -1   3   1  245.68    4.80
   0  -3  -1  558.94    9.90
   0  -3  -1  569.74   12.40
   0  -3  -1  564.64   12.20
   0   3   1  574.24    9.90
   0   3   1  560.24   12.30
   0   3   1  577.94   12.20
   0   3   1  582.44   12.60
  -1  -3  -1   63.69    2.90
  -1  -3  -1   65.99    3.60
  -1  -3  -1   62.69    3.60
   1   3   1   61.89    2.70
   1   3   1   60.09    3.50
   1   3   1   59.09    3.50
   1   3   1   73.09    3.90
  -2  -3  -1  731.63   15.60
  -2  -3  -1  746.43   14.70
  -2  -3  -1  732.73   16.10
   2   3   1  749.62   14.50
   2   3   1  746.73   15.80
   2   3   1  739.13   16.30
  -3  -3  -1   22.70    2.60
  -3  -3  -1   18.00    2.50
  -3  -3  -1   19.90    2.80
   3   3   1   24.90    3.10
   3   3   1   18.00    2.80
   3   3   1   17.40    2.70
   3   3   1   24.00    2.90
  -4  -3  -1  739.73   16.80
  -4  -3  -1  741.43   17.50
  -4  -3  -1  703.63   16.40
   4   3   1  764.42   18.00
   4   3   1  739.33   16.60
   4   3   1  738.13   16.80
  -5  -3  -1  314.07   10.60
   5   3   1  308.87   10.30
  -6  -3  -1  215.68    9.30
  -6  -3  -1  210.68    9.40
   6   3   1  229.48    9.10
   6   3   1  197.58    9.30
  -7  -3  -1    0.40    2.00
   7   3   1    1.60    2.00
   7   3   1   -1.50    1.70
  -8  -3  -1    1.80    2.20
   8   3   1    1.70    2.00
  -9  -3  -1  109.99    8.80
   9   3   1  110.99    7.40
 -10  -3  -1   24.80    4.60
  10   3   1   27.10    5.00
  10   3   1   38.50    5.20
 -11  -3  -1   14.50    4.30
  11   3   1    8.00    3.40
  11   3   1   12.40    4.10
  13  -4  -1   -5.30    2.70
  13  -4  -1    6.90    3.10
 -13   4   1   -5.70    3.00
  12  -4  -1  202.28   10.20
 -12   4   1  214.08   11.90
  11  -4  -1  689.63   19.60
  11  -4  -1  708.33   20.60
 -11   4   1  696.73   21.50
  10  -4  -1  147.19    8.10
  10  -4  -1  141.39    8.40
 -10   4   1  149.49    9.10
   9  -4  -1  101.29    6.80
   9  -4  -1  114.19    6.90
  -9   4   1  117.29    7.60
   8  -4  -1  181.88    8.60
   8  -4  -1  182.48    9.80
  -8   4   1  179.38    8.50
   7  -4  -1  592.44   15.50
   7  -4  -1  567.34   15.10
  -7   4   1  578.14   15.40
   6  -4  -1  944.71   20.50
   6  -4  -1  917.71   19.90
   6  -4  -1  946.51   20.10
  -6   4   1  914.01   19.70
  -6   4   1  920.71   19.80
   5  -4  -1    5.20    1.90
  -5   4   1    1.30    1.20
  -5   4   1    0.00    1.20
  -5   4   1    5.90    1.80
   4  -4  -1 2494.35   40.60
   4  -4  -1 2402.46   41.80
   4  -4  -1 2443.76   39.10
  -4   4   1 2447.26   39.00
  -4   4   1 2426.36   40.30
  -4   4   1 2365.36   41.10
   3  -4  -1 2363.46   36.90
   3  -4  -1 2363.66   39.00
  -3   4   1 2346.57   39.90
  -3   4   1 2378.06   36.90
  -3   4   1 2388.86   39.00
   2  -4  -1 1482.65   23.50
   2  -4  -1 1498.85   27.30
   2  -4  -1 1472.45   26.20
  -2   4   1 1509.75   27.50
  -2   4   1 1522.95   29.40
  -2   4   1 1457.15   26.10
  -2   4   1 1491.65   23.50
   1  -4  -1  999.90   20.10
   1  -4  -1 1028.80   19.60
  -1   4   1 1051.99   20.70
  -1   4   1 1007.90   16.40
  -1   4   1 1011.50   20.30
  -1   4   1  991.90   16.40
   0  -4  -1 1300.37   20.50
   0  -4  -1 1225.18   23.20
   0  -4  -1 1229.08   26.20
   0   4   1 1250.27   23.90
   0   4   1 1256.57   20.40
   0   4   1 1243.38   24.20
   0   4   1 1286.77   30.10
  -1  -4  -1 3193.68   51.99
   1   4   1 3169.68   51.79
   1   4   1 3287.17   52.19
   1   4   1 3165.48   49.00
  -2  -4  -1  362.36    9.20
  -2  -4  -1  351.76   10.50
  -2  -4  -1  356.76   10.70
   2   4   1  358.06   10.70
   2   4   1  360.66   10.30
   2   4   1  361.56    9.20
   2   4   1  367.26   10.90
  -3  -4  -1   83.09    5.30
  -3  -4  -1   82.99    4.90
   3   4   1   85.09    5.10
   3   4   1   79.09    4.50
   3   4   1   78.09    5.20
  -4  -4  -1 3607.34   58.99
  -4  -4  -1 3618.84   65.49
   4   4   1 3524.05   59.29
   4   4   1 3626.74   65.89
  -5  -4  -1 1061.49   32.10
  -5  -4  -1 1071.59   24.50
   5   4   1 1063.19   25.00
   5   4   1 1044.20   23.10
  -6  -4  -1   65.19    5.70
  -6  -4  -1   60.99    5.60
   6   4   1   68.39    6.60
   6   4   1   66.39    5.90
  -7  -4  -1   16.90    3.90
   7   4   1   18.10    3.80
   7   4   1   14.30    3.30
  -8  -4  -1  368.96   14.50
   8   4   1  356.26   13.20
   8   4   1  373.66   15.60
  -9  -4  -1  131.59    9.20
   9   4   1  136.29    9.60
   9   4   1  128.29    8.10
 -10  -4  -1   93.19    8.70
  10   4   1   96.19    7.40
  10   4   1   86.89    8.20
  12  -5  -1   96.29    8.10
 -12   5   1  119.79    9.30
  11  -5  -1    0.20    2.30
  11  -5  -1   -3.30    2.60
 -11   5   1   -3.80    2.70
  10  -5  -1   76.99    6.10
  10  -5  -1   69.79    6.20
 -10   5   1   87.89    7.40
   9  -5  -1 1210.98   27.60
   9  -5  -1 1221.68   27.10
  -9   5   1 1216.68   27.80
   8  -5  -1   13.60    3.30
  -8   5   1   16.50    3.40
   7  -5  -1    2.70    1.90
   7  -5  -1   -3.10    1.40
  -7   5   1    1.10    1.60
   6  -5  -1  879.81   19.50
   6  -5  -1  892.61   21.10
   6  -5  -1  856.31   19.00
  -6   5   1  878.91   21.70
  -6   5   1  891.31   19.10
   5  -5  -1  467.05   12.40
   5  -5  -1  452.85   13.10
  -5   5   1  466.35   11.50
  -5   5   1  459.65   12.20
   4  -5  -1 1175.38   24.30
   4  -5  -1 1190.48   21.30
  -4   5   1 1192.08   21.30
  -4   5   1 1168.98   22.80
   3  -5  -1    6.40    1.90
   3  -5  -1    1.70    1.00
   3  -5  -1    1.80    1.70
  -3   5   1    3.60    1.50
  -3   5   1   -0.20    1.00
   2  -5  -1  115.09    3.80
   2  -5  -1  118.99    6.00
  -2   5   1  123.39    6.10
  -2   5   1  114.49    5.50
  -2   5   1  113.79    6.40
  -2   5   1  120.39    3.80
  -2   5   1  116.69    3.80
   1  -5  -1  996.80   21.20
  -1   5   1 1010.80   20.50
  -1   5   1 1003.80   17.00
  -1   5   1 1029.40   21.50
  -1   5   1 1043.10   17.20
  -1   5   1  996.70   21.30
   0  -5  -1  867.51   18.70
   0  -5  -1  868.01   15.90
   0   5   1  967.50   21.40
   0   5   1  877.71   15.80
   0   5   1  845.82   15.60
   0   5   1  855.61   18.70
   0   5   1  893.91   19.70
  -1  -5  -1   10.50    2.30
  -1  -5  -1    8.30    1.60
   1   5   1    8.30    2.30
   1   5   1    8.60    1.50
  -2  -5  -1  273.27    8.10
  -2  -5  -1  258.07    9.60
   2   5   1  267.27    9.50
   2   5   1  269.57    8.20
  -3  -5  -1  750.92   18.80
  -3  -5  -1  752.32   16.90
   3   5   1  769.22   18.40
   3   5   1  771.12   19.40
   3   5   1  767.02   16.90
  -4  -5  -1  742.43   17.80
  -4  -5  -1  737.53   19.30
   4   5   1  737.63   19.80
   4   5   1  733.93   18.50
  -5  -5  -1  146.39    7.70
  -5  -5  -1  155.68    8.40
   5   5   1  160.58    8.90
   5   5   1  162.58    8.00
  -6  -5  -1   87.39    6.80
  -6  -5  -1   73.49    6.20
   6   5   1   71.99    6.50
   6   5   1   72.79    6.00
  -7  -5  -1  172.28    9.30
   7   5   1  175.08   10.50
   7   5   1  172.78    9.00
   8   5   1  141.09    9.60
   8   5   1  142.59    8.60
  -9  -5  -1    0.50    2.40
   9   5   1    0.90    2.50
   9   5   1   -2.40    2.30
 -10  -5  -1   30.30    5.70
  10   5   1   12.40    6.60
  10   5   1   25.30    5.60
  12  -6  -1  157.88    9.80
  12  -6  -1  148.09    9.40
 -12   6   1  174.88   10.50
  11  -6  -1    8.80    3.50
  11  -6  -1   12.70    4.60
 -11   6   1   13.50    3.70
  10  -6  -1  327.67   13.30
  10  -6  -1  354.06   13.00
 -10   6   1  323.67   13.30
   9  -6  -1  511.65   15.50
   9  -6  -1  488.05   16.10
  -9   6   1  493.25   15.70
   8  -6  -1  345.07   13.00
   8  -6  -1  357.96   12.20
  -8   6   1  362.56   12.30
   7  -6  -1   64.29    5.50
   7  -6  -1   52.99    4.90
  -7   6   1   53.99    4.70
   6  -6  -1 1488.15   28.90
   6  -6  -1 1451.65   27.90
   6  -6  -1 1473.05   30.80
  -6   6   1 1487.65   27.90
   5  -6  -1 1426.76   27.50
   5  -6  -1 1451.05   29.50
   5  -6  -1 1287.87   30.70
  -5   6   1 1449.06   25.90
   4  -6  -1  129.39    5.00
   4  -6  -1  132.99    6.20
  -4   6   1  116.49    4.90
  -4   6   1  136.09    6.40
   3  -6  -1    6.60    1.40
   3  -6  -1    4.90    1.80
   3  -6  -1    5.50    2.20
  -3   6   1    0.70    1.70
  -3   6   1    3.90    1.20
  -3   6   1    5.90    1.50
  -3   6   1    3.90    1.80
   2  -6  -1 2352.66   41.00
   2  -6  -1 2353.76   42.70
  -2   6   1 2352.36   36.90
  -2   6   1 2367.56   37.30
  -2   6   1 2381.66   43.00
  -2   6   1 2397.36   43.90
   1  -6  -1   50.49    4.30
   1  -6  -1   40.30    3.80
  -1   6   1   45.20    3.10
  -1   6   1   39.30    2.50
  -1   6   1   45.00    4.30
   0  -6  -1  728.53   17.30
   0  -6  -1  706.43   14.00
   0   6   1  724.33   14.10
   0   6   1  704.93   17.80
   0   6   1  684.13   13.70
  -1  -6  -1  309.97   10.80
  -1  -6  -1  303.57    8.40
   1   6   1  296.77    8.20
   1   6   1  295.17   10.60
  -2  -6  -1  855.21   20.60
   2   6   1  833.32   17.50
  -3  -6  -1 1084.59   22.60
  -3  -6  -1 1110.39   25.50
   3   6   1 1125.79   26.20
   3   6   1 1128.69   25.10
  -4  -6  -1  489.95   16.10
  -4  -6  -1  482.85   15.80
   4   6   1  500.35   15.20
   4   6   1  507.25   16.60
  -5  -6  -1  130.49    7.30
  -5  -6  -1  126.09    8.00
   5   6   1  122.79    7.40
   5   6   1  119.39    8.30
  -6  -6  -1  435.06   14.90
  -6  -6  -1  457.25   16.60
   6   6   1  457.45   17.10
   6   6   1  453.15   15.20
  -7  -6  -1  328.97   13.50
   7   6   1  343.17   15.20
   7   6   1  324.07   13.00
  -8  -6  -1   28.50    5.10
   8   6   1   20.10    4.70
   8   6   1   27.80    5.10
  -9  -6  -1   50.39    7.00
   9   6   1   44.40    7.00
  12  -7  -1  108.79    8.60
  12  -7  -1  101.89    8.30
 -12   7   1  110.99    8.70
  11  -7  -1  142.19    8.90
  11  -7  -1  146.39    9.40
 -11   7   1  134.99    9.20
  10  -7  -1  212.68   10.30
  10  -7  -1  223.68   16.20
 -10   7   1  210.58   10.50
   9  -7  -1    2.10    2.30
   9  -7  -1    1.80    2.60
  -9   7   1    2.80    2.40
   8  -7  -1    9.20    2.90
   8  -7  -1    6.50    2.90
  -8   7   1    4.40    2.30
   7  -7  -1  836.02   22.20
  -7   7   1  834.92   19.40
   6  -7  -1  544.35   15.60
   6  -7  -1  532.65   14.90
   6  -7  -1  520.55   16.40
  -6   7   1  548.35   13.80
   5  -7  -1  119.09    7.50
   5  -7  -1  121.99    6.60
   5  -7  -1  112.89    5.40
  -5   7   1  110.29    6.00
   4  -7  -1  684.93   14.50
   4  -7  -1  695.33   19.00
   4  -7  -1  711.63   17.20
  -4   7   1  701.23   14.60
  -4   7   1  707.63   19.30
   3  -7  -1  122.69    6.40
   3  -7  -1  120.49    4.70
   3  -7  -1  121.69    7.20
  -3   7   1  121.59    4.50
  -3   7   1  122.99    4.80
  -3   7   1  128.29    7.40
   2  -7  -1   67.59    5.50
   2  -7  -1   63.59    4.90
  -2   7   1   66.59    3.50
  -2   7   1   73.99    5.80
  -2   7   1   62.69    3.20
   1  -7  -1    3.50    2.20
   1  -7  -1    0.90    2.00
  -1   7   1    1.20    1.80
  -1   7   1    2.20    1.20
  -1   7   1    1.50    0.90
   0  -7  -1  606.34   12.90
   0  -7  -1  568.44   15.80
   0   7   1  564.94   12.40
   0   7   1  597.14   12.90
   0   7   1  600.84   17.00
  -1  -7  -1  342.47    9.40
  -1  -7  -1  341.37   12.00
   1   7   1  336.97   12.40
   1   7   1  335.37   11.00
   1   7   1  332.47    9.40
  -2  -7  -1  359.86   10.40
  -2  -7  -1  359.26   12.80
   2   7   1  349.17   10.30
   2   7   1  368.96   13.10
  -3  -7  -1    2.90    2.40
  -3  -7  -1    9.90    2.30
   3   7   1    2.80    2.50
   3   7   1    6.50    2.70
  -4  -7  -1  139.29    8.50
  -4  -7  -1  131.99    7.20
   4   7   1  131.19    8.80
   4   7   1  142.49    8.30
  -5  -7  -1   62.49    6.40
  -5  -7  -1   57.09    5.60
   5   7   1   59.19    6.20
   5   7   1   59.49    6.70
  -6  -7  -1   41.70    5.40
  -6  -7  -1   39.60    5.90
   6   7   1   48.80    6.00
   6   7   1   46.90    5.70
  -7  -7  -1    3.50    5.10
   7   7   1   -0.90    2.50
   7   7   1    6.10    3.90
  -8  -7  -1   31.20    5.80
   8   7   1   37.90    5.90
  11  -8  -1  219.08   11.00
  11  -8  -1  248.88   12.70
 -11   8   1  238.88   11.90
  10  -8  -1  151.68    9.80
  10  -8  -1  133.89    8.30
 -10   8   1  139.19    8.50
   9  -8  -1   45.00    5.10
   9  -8  -1   53.79    6.40
  -9   8   1   46.60    5.30
   8  -8  -1  303.17   11.50
   8  -8  -1  308.47   13.10
  -8   8   1  288.27   10.90
   7  -8  -1 1021.70   26.60
   7  -8  -1 1101.99   24.50
  -7   8   1 1063.99   22.90
   6  -8  -1  274.87   10.30
   6  -8  -1  265.87   11.70
  -6   8   1  237.18    8.60
   5  -8  -1    9.20    2.70
   5  -8  -1    8.90    2.10
   5  -8  -1    9.90    3.20
  -5   8   1   15.30    3.70
   4  -8  -1   71.09    5.60
   4  -8  -1   74.39    4.20
   4  -8  -1   79.79    6.50
  -4   8   1   73.59    4.20
  -4   8   1   70.29    3.90
  -4   8   1   80.09    6.60
   3  -8  -1 1078.99   23.70
   3  -8  -1 1065.49   25.80
  -3   8   1 1037.20   19.30
  -3   8   1 1043.50   19.50
  -3   8   1 1018.60   25.70
   2  -8  -1  156.08    7.90
   2  -8  -1  151.08    8.60
  -2   8   1  164.88    5.70
  -2   8   1  148.69    5.30
  -2   8   1  157.68    8.90
   1  -8  -1   24.50    4.20
   1  -8  -1   25.20    4.00
  -1   8   1   20.80    4.00
  -1   8   1   17.40    2.20
  -1   8   1   18.60    2.40
   0  -8  -1 1509.65   32.30
   0   8   1 1616.64   28.10
   0   8   1 1594.54   34.10
  -1  -8  -1  928.11   23.30
  -1  -8  -1  920.01   19.30
   1   8   1  912.91   23.70
   1   8   1  971.10   21.90
   1   8   1  879.41   18.70
  -2  -8  -1  145.29    8.70
  -2  -8  -1  144.69    6.70
   2   8   1  159.78    9.10
   2   8   1  155.28    7.00
  -3  -8  -1   55.89    6.10
   3   8   1   60.49    5.90
   3   8   1   60.49    6.80
  -4  -8  -1  370.76   12.50
   4   8   1  356.46   14.00
  -5  -8  -1   77.79    6.40
  -5  -8  -1   80.89    7.70
   5   8   1   87.09    7.40
   5   8   1   73.29    7.30
  -6  -8  -1  123.69    9.50
  -6  -8  -1  126.39    8.30
   6   8   1  121.49    9.90
   6   8   1  117.29    8.80
  -7  -8  -1    7.10    3.40
   7   8   1    9.40    3.90
  11  -9  -1    1.60    3.30
  11  -9  -1   10.10    3.60
 -11   9   1   -3.40    4.40
  10  -9  -1  179.18    9.80
  10  -9  -1  170.78   11.10
 -10   9   1  196.88    9.90
   9  -9  -1  163.28    9.00
   9  -9  -1  149.09   10.00
  -9   9   1  160.28    8.50
   8  -9  -1  335.07   12.30
   8  -9  -1  313.27   14.10
  -8   9   1  323.47   11.50
   7  -9  -1   12.70    3.20
   7  -9  -1   18.50    5.40
  -7   9   1   15.10    3.00
   6  -9  -1   35.50    5.50
  -6   9   1   36.90    5.50
  -6   9   1   37.30    3.70
   5  -9  -1  515.45   17.70
   5  -9  -1  496.05   15.10
   5  -9  -1  480.45   12.30
  -5   9   1  490.85   12.20
  -5   9   1  515.45   17.90
   4  -9  -1  349.27   12.40
   4  -9  -1  370.86   14.80
  -4   9   1  358.46   14.70
  -4   9   1  371.36    9.80
   3  -9  -1   -1.40    2.40
   3  -9  -1    3.40    2.20
  -3   9   1   -1.00    1.50
  -3   9   1   -2.60    1.20
  -3   9   1    0.10    2.20
   2  -9  -1  154.28    9.10
   2  -9  -1  144.79    8.00
  -2   9   1  139.39    5.60
  -2   9   1  140.39    5.30
  -2   9   1  154.08    9.30
   1  -9  -1  823.72   21.60
  -1   9   1  869.51   17.30
  -1   9   1  885.41   23.90
  -1   9   1  800.32   20.80
   0  -9  -1  234.78   10.70
   0   9   1  226.08   11.20
   0   9   1  213.08    7.40
  -1  -9  -1  101.19    5.50
  -1  -9  -1  103.79    7.50
   1   9   1  111.19    8.20
   1   9   1  104.39    5.70
  -2  -9  -1   19.30    4.20
  -2  -9  -1   21.10    3.20
   2   9   1   20.50    4.50
   2   9   1   14.80    2.70
  -3  -9  -1  464.45   14.00
  -3  -9  -1  460.45   17.00
   3   9   1  483.35   17.30
   3   9   1  488.65   18.10
  -4  -9  -1  106.49    7.00
  -4  -9  -1  115.59    8.60
   4   9   1  126.69    9.40
  -5  -9  -1    2.60    2.90
  -5  -9  -1    9.10    3.20
   5   9   1    4.00    3.00
   5   9   1    6.80    3.90
  -6  -9  -1   20.70    4.80
   6   9   1   20.70    4.40
   6   9   1   12.00    4.10
  10 -10  -1  159.68    9.50
  10 -10  -1  189.88   11.70
 -10  10   1  187.08    9.50
   9 -10  -1  367.76   13.70
   9 -10  -1  340.27   15.60
  -9  10   1  337.57   12.40
   8 -10  -1  136.89    9.90
   8 -10  -1  135.19    8.30
  -8  10   1  152.48   10.50
  -8  10   1  130.59    7.20
   7 -10  -1    1.30    2.70
   7 -10  -1    1.90    2.40
  -7  10   1    5.60    2.60
  -7  10   1   -3.80    2.20
   6 -10  -1  343.97   15.20
   6 -10  -1  363.16   13.10
  -6  10   1  335.27   10.40
  -6  10   1  331.37   15.30
   5 -10  -1  313.67   12.10
   5 -10  -1  301.27   14.10
  -5  10   1  285.37    8.90
  -5  10   1  323.57   10.90
  -5  10   1  309.57   14.50
   4 -10  -1  367.06   13.30
   4 -10  -1  372.66   15.40
  -4  10   1  362.06   10.90
  -4  10   1  353.76   10.50
  -4  10   1  392.96   16.30
   3 -10  -1   65.69    8.00
   3 -10  -1   62.09    5.90
  -3  10   1   65.79    9.40
  -3  10   1   56.49    4.00
   2 -10  -1  430.86   15.10
  -2  10   1  451.95   11.10
   1 -10  -1  634.34   19.00
  -1  10   1  581.64   13.50
   0 -10  -1  163.18    9.40
   0  10   1  152.78    6.70
   0  10   1  174.48   12.50
   0  10   1  148.59    7.00
  -1 -10  -1    0.90    3.20
   1  10   1    5.40    2.90
   1  10   1    1.20    1.70
  -2 -10  -1  223.08   11.90
  -2 -10  -1  223.98    9.10
   2  10   1  216.98   12.00
   2  10   1  224.18   12.60
   2  10   1  231.38   13.70
  -3 -10  -1  423.56   13.50
  -3 -10  -1  442.16   17.20
   3  10   1  437.86   18.00
   3  10   1  399.26   13.40
   3  10   1  398.86   16.50
  -4 -10  -1   82.59    6.80
  -4 -10  -1   83.09    8.20
   4  10   1   84.69    7.70
   4  10   1   75.79    6.50
   4  10   1   96.49    9.40
  -5 -10  -1   -0.70    3.40
  -5 -10  -1   10.20    3.50
   5  10   1    0.90    3.40
   5  10   1    2.40    3.60
   9 -11  -1   63.29    6.80
  -9  11   1   58.09    9.30
  -9  11   1   53.29    5.60
   8 -11  -1   75.99    7.00
   8 -11  -1   84.79    8.00
  -8  11   1   77.19    8.50
  -8  11   1   73.29    5.70
   7 -11  -1  267.57   14.00
   7 -11  -1  223.38   10.80
  -7  11   1  253.67   14.00
  -7  11   1  216.68   12.60
   6 -11  -1  110.59    7.80
   6 -11  -1  121.29    9.40
  -6  11   1  113.39    5.80
  -6  11   1  117.09    9.70
   5 -11  -1    6.00    2.90
   5 -11  -1    8.30    3.50
  -5  11   1    7.70    3.00
  -5  11   1    6.50    4.00
   4 -11  -1  132.19    9.50
   4 -11  -1  109.29    7.70
  -4  11   1  106.69    9.10
   3 -11  -1  192.08   10.10
   3 -11  -1  161.98   10.60
  -3  11   1  195.58   11.80
  -3  11   1  171.38    6.80
   2 -11  -1  312.27   13.70
  -2  11   1  355.76   15.80
   1 -11  -1    1.10    2.80
  -1  11   1   -1.00    3.00
   0 -11  -1   62.79    6.60
   0  11   1   55.79    4.40
   0  11   1   50.79    7.10
  -1 -11  -1  197.28   11.30
   1  11   1  215.98   12.40
   1  11   1  216.38    8.60
  -2 -11  -1   89.29    8.00
   2  11   1   73.69    8.20
   2  11   1   91.29    6.20
   2  11   1   93.59    8.60
  -3 -11  -1    7.70    3.50
  -3 -11  -1   -3.60    2.40
   3  11   1   -0.40    2.90
   3  11   1    3.50    2.60
   3  11   1    1.50    3.60
   6 -12  -1   90.69    8.30
  -6  12   1  108.69    9.70
   5 -12  -1   -1.80    2.70
   5 -12  -1    1.50    2.70
  -5  12   1   -0.80    3.30
   4 -12  -1  115.49    9.40
   4 -12  -1  104.79    8.00
  -4  12   1  115.09    9.80
   3 -12  -1  130.69    8.90
  -3  12   1  110.19    9.30
   2 -12  -1  228.28   11.70
  -2  12   1  208.58   12.90
   1 -12  -1    0.70    2.70
  -1  12   1   -4.10    2.30
   0 -12  -1  195.08   11.40
   0  12   1  202.18   12.50
  -1 -12  -1  177.98   11.00
   1  12   1  154.38   11.60
   1  12   1  189.08   12.20
   1  13  -2   95.89    7.50
   1  13  -2   75.19    8.10
   1  13  -2   74.89    8.20
   0  13  -2   -4.20    2.50
   0  13  -2    3.60    3.20
   0  13  -2   -2.50    2.50
   0 -13   2   -0.90    2.70
  -1  13  -2  149.29    9.80
  -1  13  -2  174.68    9.50
  -1  13  -2  143.59   10.80
   1 -13   2  163.48   11.00
   1 -13   2  172.38    9.90
  -2  13  -2  285.67   15.00
  -2  13  -2  322.57   15.30
  -2  13  -2  308.47   13.20
   2 -13   2  296.27   14.80
   2 -13   2  292.67   12.60
  -3  13  -2    9.60    5.20
  -3  13  -2   15.80    3.90
  -3  13  -2   19.70    4.60
   3 -13   2   23.70    4.10
   3 -13   2   23.50    5.10
  -4  13  -2   12.00    5.60
  -4  13  -2   16.10    5.10
  -4  13  -2   19.80    5.60
   4 -13   2   24.20    3.80
   4 -13   2   26.30    5.90
  -5  13  -2   95.89    7.60
   5 -13   2   99.39    6.70
   5 -13   2   88.99   15.00
   3  12  -2  240.58   13.60
   3  12  -2  256.47   14.70
   3  12  -2  244.18   13.00
  -3 -12   2  242.58   12.90
  -3 -12   2  255.57   12.40
   2  12  -2   28.90    5.60
   2  12  -2   31.90    4.40
   2  12  -2   38.20    6.00
  -2 -12   2   28.70    5.40
   1  12  -2   70.29    6.70
   1  12  -2   62.59    7.30
   1  12  -2   63.49    7.30
  -1 -12   2   66.39    6.80
   0  12  -2  228.78   12.80
   0  12  -2  208.48   11.60
   0  12  -2  224.58   10.30
   0 -12   2  257.47   13.80
  -1  12  -2  307.17   12.00
  -1  12  -2  293.47   12.70
  -1  12  -2  303.67   14.90
   1 -12   2  278.07   11.90
   1 -12   2  295.47   14.30
  -2  12  -2   13.30    3.70
  -2  12  -2   11.40    3.20
  -2  12  -2   12.60    4.30
   2 -12   2   16.90    3.40
   2 -12   2   16.40    4.10
  -3  12  -2  128.69    8.10
  -3  12  -2  139.49   10.20
  -3  12  -2  134.59    8.10
   3 -12   2  137.69    7.60
   3 -12   2  139.89    9.90
  -4  12  -2  451.55   18.50
  -4  12  -2  455.55   15.00
   4 -12   2  454.45   14.00
   4 -12   2  464.25   18.40
  -5  12  -2  127.29   10.10
  -5  12  -2  143.49    8.40
   5 -12   2  141.49   10.20
   5 -12   2  146.49    7.50
  -6  12  -2   11.00    3.40
   6 -12   2   12.40    2.80
   6 -12   2    5.60    3.40
  -7  12  -2  145.99    9.30
   7 -12   2  149.69   10.80
  -8  12  -2  147.29    9.80
   8 -12   2  160.48   13.30
   5  11  -2   42.20    6.10
   5  11  -2   37.70    5.70
   5  11  -2   40.10    6.50
  -5 -11   2   30.80    5.30
   4  11  -2  132.99    9.90
   4  11  -2   93.09    9.30
   4  11  -2  102.09    8.50
  -4 -11   2  101.59    8.10
   3  11  -2   72.49    6.70
   3  11  -2   80.79    8.00
  -3 -11   2   79.49    7.20
  -3 -11   2   66.29    6.50
   2  11  -2    8.30    3.00
   2  11  -2    0.70    2.50
   2  11  -2   -0.20    4.40
  -2 -11   2    2.90    2.60
  -2 -11   2    5.20    3.00
   1  11  -2  100.39    7.20
   1  11  -2   89.19    7.30
   1  11  -2   89.89    7.90
  -1 -11   2  106.79    7.70
   0  11  -2   97.69    7.00
   0  11  -2   93.29    9.50
   0  11  -2  103.89    7.60
   0 -11   2   95.99   11.70
   0 -11   2  105.69    7.30
  -1  11  -2  181.68    9.40
  -1  11  -2  194.98    9.10
   1 -11   2  195.38    9.30
  -2  11  -2    1.20    3.40
  -2  11  -2   -4.50    1.70
  -2  11  -2   -3.00    1.70
   2 -11   2   -0.20    2.90
   2 -11   2   -1.40    1.80
  -3  11  -2  103.49    7.10
  -3  11  -2  114.49    8.80
   3 -11   2  112.99    8.80
   3 -11   2  105.59    6.30
  -4  11  -2  495.35   18.60
  -4  11  -2  493.85   15.30
   4 -11   2  512.25   18.40
   4 -11   2  513.35   14.40
  -5  11  -2  105.19    8.50
   5 -11   2  100.49    8.40
   5 -11   2  119.79    6.30
  -6  11  -2   -3.50    2.20
   6 -11   2   -1.90    2.00
   6 -11   2   -1.60    1.60
  -7  11  -2   62.69    6.50
   7 -11   2   86.29    7.90
   7 -11   2   71.59    4.90
  -8  11  -2  219.28   11.30
   8 -11   2  202.28    7.60
   8 -11   2  227.18   13.00
  -9  11  -2   54.49    6.40
   9 -11   2   51.89    7.60
   6  10  -2  348.77   16.30
   6  10  -2  323.47   13.40
  -6 -10   2  344.47   14.90
   5  10  -2  380.06   14.60
   5  10  -2  408.76   16.40
   5  10  -2  385.46   16.80
  -5 -10   2  397.26   15.30
   4  10  -2   62.19    7.20
   4  10  -2   55.79    6.10
   4  10  -2   55.09    6.00
  -4 -10   2   38.60    5.20
   3  10  -2  179.48    9.50
   3  10  -2  187.08   12.90
   3  10  -2  206.78   10.40
  -3 -10   2  208.28   12.60
  -3 -10   2  182.58    9.40
   2  10  -2  470.85   16.20
   2  10  -2  467.85   16.70
   2  10  -2  523.95   16.00
  -2 -10   2  455.45   14.90
  -2 -10   2  477.25   16.30
   1  10  -2  306.87   13.10
   1  10  -2  314.57   11.90
   1  10  -2  318.87   13.00
  -1 -10   2  299.57   12.20
   0  10  -2   72.29    5.70
   0  10  -2   66.59    6.30
   0  10  -2   73.69    6.00
   0 -10   2   76.99    6.50
   0 -10   2   73.99    6.00
  -1  10  -2  207.88    9.20
  -1  10  -2  217.48   11.20
  -1  10  -2  192.78    9.10
   1 -10   2  197.58    8.90
   1 -10   2  179.18   10.20
  -2  10  -2  637.64   20.00
  -2  10  -2  651.03   17.20
   2 -10   2  611.84   19.50
   2 -10   2  615.94   16.30
  -3  10  -2  777.22   19.60
   3 -10   2  756.52   22.10
   3 -10   2  786.62   18.30
  -4  10  -2  213.08    9.60
   4 -10   2  220.98   11.60
   4 -10   2  217.28    8.10
  -5  10  -2  176.18    8.80
   5 -10   2  174.48    7.00
  -6  10  -2  479.15   15.30
  -6  10  -2  469.45   13.50
   6 -10   2  440.16   11.80
   6 -10   2  459.15   17.20
  -7  10  -2  347.47   13.30
   7 -10   2  355.76   15.30
   7 -10   2  358.36   10.10
  -8  10  -2    9.40    3.50
   8 -10   2   28.00    5.00
   8 -10   2   21.50    2.80
  -9  10  -2   51.89    6.40
   9 -10   2   69.19    7.30
   9 -10   2   51.39    4.30
  10 -10   2  434.36   18.40
   7   9  -2  104.79    9.40
   7   9  -2   95.79    7.20
  -7  -9   2  111.09    9.10
   6   9  -2  156.98   10.50
   6   9  -2  133.79    8.40
  -6  -9   2  151.48    9.40
   5   9  -2   39.40    5.90
   5   9  -2   44.40    5.00
  -5  -9   2   41.10    5.60
   4   9  -2    0.80    2.20
   4   9  -2   -1.40    2.30
  -4  -9   2   -1.60    2.00
  -4  -9   2    2.00    2.50
   3   9  -2  395.16   14.90
   3   9  -2  392.36   13.90
   3   9  -2  405.86   14.10
  -3  -9   2  408.76   14.80
  -3  -9   2  397.06   13.70
   2   9  -2  441.46   14.80
   2   9  -2  440.56   15.20
   2   9  -2  444.86   14.20
  -2  -9   2  447.36   14.80
  -2  -9   2  428.56   13.70
   1   9  -2   -0.20    2.00
   1   9  -2    5.20    2.30
   1   9  -2    4.70    2.50
  -1  -9   2    6.00    2.50
  -1  -9   2    1.70    2.20
  -1  -9   2    2.80    2.00
   0   9  -2   42.80    4.50
   0   9  -2   43.20    5.10
   0  -9   2   39.50    4.30
   0  -9   2   48.10    5.10
  -1   9  -2  295.97   10.60
  -1   9  -2  310.17   12.40
  -1   9  -2  293.07   10.50
   1  -9   2  296.07   12.10
   1  -9   2  287.17   10.20
  -2   9  -2  855.91   20.00
   2  -9   2  846.52   22.30
   2  -9   2  844.82   19.00
  -3   9  -2  250.27   10.00
   3  -9   2  262.27   11.60
   3  -9   2  249.38    8.60
  -4   9  -2    5.00    1.90
  -4   9  -2    6.70    2.50
   4  -9   2    3.50    1.70
   4  -9   2    7.90    2.60
  -5   9  -2  188.58    8.90
  -5   9  -2  174.48    6.80
   5  -9   2  178.68   10.10
  -6   9  -2  396.96   13.60
  -6   9  -2  380.36   10.60
   6  -9   2  404.66   15.20
  -7   9  -2   67.19    4.40
  -7   9  -2   81.09    6.60
  -8   9  -2   -5.40    2.10
  -8   9  -2   -2.90    1.40
   8  -9   2   -2.60    2.30
  -9   9  -2  128.79   14.30
   9  -9   2  115.59    9.20
   9  -9   2  106.79    5.50
 -10   9  -2  168.78   10.40
  10  -9   2  199.48   12.00
  10  -9   2  180.38    7.30
 -11   9  -2  188.18   11.40
  11  -9   2  201.98   12.20
   8   8  -2  258.87   10.90
   8   8  -2  265.97   14.30
  -8  -8   2  270.57   13.60
   7   8  -2  376.46   16.50
   7   8  -2  359.76   12.80
  -7  -8   2  360.56   15.20
   6   8  -2   55.69    6.50
   6   8  -2   53.09    5.30
  -6  -8   2   54.29    6.30
   5   8  -2   68.39    7.10
   5   8  -2   66.79    5.50
  -5  -8   2   78.19    6.50
   4   8  -2  525.35   15.20
   4   8  -2  480.15   16.70
  -4  -8   2  487.55   15.50
  -4  -8   2  478.05   16.10
   3   8  -2  645.44   17.30
   3   8  -2  636.94   17.70
   3   8  -2  624.54   18.60
  -3  -8   2  618.34   18.10
  -3  -8   2  647.04   17.60
   2   8  -2  194.38    8.90
   2   8  -2  177.98    8.90
   2   8  -2  177.28    8.30
  -2  -8   2  169.08    8.50
  -2  -8   2  176.48    8.10
   1   8  -2   81.89    5.60
   1   8  -2   80.79    6.00
   1   8  -2   79.89    5.90
  -1  -8   2   72.59    5.60
  -1  -8   2   73.79    5.40
  -1  -8   2   69.89    5.50
   0   8  -2 2713.13   46.70
   0   8  -2 2696.23   48.40
   0   8  -2 2632.14   45.90
   0  -8   2 2568.04   45.60
   0  -8   2 2605.44   47.70
  -1   8  -2 1095.09   22.80
  -1   8  -2 1041.50   24.60
   1  -8   2 1060.99   24.40
   1  -8   2 1018.20   21.60
  -2   8  -2  280.87    9.10
  -2   8  -2  302.57   10.20
   2  -8   2  298.47    9.20
   2  -8   2  299.87   11.50
  -3   8  -2  465.45   12.00
  -3   8  -2  461.45   13.40
   3  -8   2  483.35   13.20
   3  -8   2  495.45   15.40
  -4   8  -2 2060.29   37.60
  -4   8  -2 2027.00   34.50
   4  -8   2 1970.90   33.80
   4  -8   2 2006.20   39.90
  -5   8  -2    9.40    3.00
  -5   8  -2    3.20    1.60
   5  -8   2    5.10    1.60
   5  -8   2    4.60    2.40
  -6   8  -2  189.68    9.10
  -6   8  -2  176.68    6.30
   6  -8   2  193.68    6.40
   6  -8   2  187.88    9.90
  -7   8  -2  131.19    6.30
  -7   8  -2  128.39    8.10
   7  -8   2  147.29    9.00
   7  -8   2  153.38    5.70
  -8   8  -2  634.64   16.00
  -8   8  -2  669.13   19.60
   8  -8   2  675.53   23.20
  -9   8  -2  371.56   14.40
   9  -8   2  354.56   10.20
   9  -8   2  321.47   14.40
 -10   8  -2    1.70    3.00
  10  -8   2    4.40    3.20
  10  -8   2   -4.00    1.80
 -11   8  -2   48.50    6.60
  11  -8   2   71.99    7.30
  11  -8   2   49.20    6.30
   9   7  -2   25.00    5.00
   9   7  -2   22.70    3.80
  -9  -7   2   21.30    4.90
   8   7  -2  152.78   10.50
   8   7  -2  158.48    8.10
  -8  -7   2  172.88   10.60
   7   7  -2   55.09    6.60
   7   7  -2   57.59    5.20
  -7  -7   2   50.69    9.40
   6   7  -2   13.80    3.60
   6   7  -2   11.60    4.20
  -6  -7   2   10.60    3.20
   5   7  -2   14.60    3.00
   5   7  -2   14.40    3.60
  -5  -7   2   11.20    3.40
   4   7  -2  369.76   11.70
   4   7  -2  363.96   13.50
  -4  -7   2  341.57   12.40
   3   7  -2  208.08    9.40
   3   7  -2  202.38    8.40
  -3  -7   2  212.58    9.30
  -3  -7   2  206.78    8.90
   2   7  -2   15.60    2.80
   2   7  -2   16.40    2.90
  -2  -7   2   15.70    2.80
   1   7  -2  373.76   11.30
   1   7  -2  371.06   11.60
   1   7  -2  372.86   11.80
  -1  -7   2  373.06   11.40
  -1  -7   2  363.46   11.50
  -1  -7   2  374.06   11.20
   0   7  -2  487.45   14.20
   0   7  -2  492.75   13.90
   0   7  -2  466.75   12.70
   0   7  -2  478.55   12.60
   0   7  -2  474.95   12.80
   0  -7   2  462.85   12.40
   0  -7   2  466.65   13.50
  -1   7  -2  477.25   12.80
  -1   7  -2  492.05   12.10
  -1   7  -2  464.15   12.40
   1  -7   2  481.75   13.90
  -2   7  -2  117.29    5.70
  -2   7  -2  115.29    5.10
  -2   7  -2  127.79    6.10
   2  -7   2  124.89    5.10
   2  -7   2  133.69    8.20
   2  -7   2  123.29    5.80
  -3   7  -2  126.79    5.00
  -3   7  -2  129.99    6.40
   3  -7   2  135.89    5.10
   3  -7   2  129.09    7.00
  -4   7  -2  513.85   13.90
  -4   7  -2  481.35   10.90
   4  -7   2  484.65   10.80
   4  -7   2  489.75   15.00
  -5   7  -2   95.49    4.30
  -5   7  -2   97.29    6.50
   5  -7   2   98.19    6.80
   5  -7   2   96.89    4.20
  -6   7  -2   40.20    3.10
  -6   7  -2   43.50    5.20
   6  -7   2   44.60    3.10
   6  -7   2   53.39    5.40
  -7   7  -2  285.37    8.20
  -7   7  -2  298.07   11.80
   7  -7   2  288.07    8.20
   7  -7   2  300.97   12.50
  -8   7  -2  333.47   12.90
  -8   7  -2  312.67   12.10
   8  -7   2  333.87   13.70
   8  -7   2  326.77   12.80
  -9   7  -2    2.30    1.80
  -9   7  -2    6.90    3.30
   9  -7   2    8.50    2.20
   9  -7   2    8.90    3.60
 -10   7  -2   15.20    3.80
  10  -7   2   14.20    3.70
  10  -7   2    8.60    2.60
 -11   7  -2  173.08   11.00
  11  -7   2  174.08   11.10
  11  -7   2  160.88   11.30
 -12   7  -2   22.70    5.20
  12  -7   2   24.00    5.00
  12  -7   2   25.40    6.10
  10   6  -2   81.89    8.60
  10   6  -2   76.09    5.80
 -10  -6   2  102.99    8.70
   9   6  -2  410.76   17.70
   9   6  -2  430.86   14.40
  -9  -6   2  436.16   17.30
   8   6  -2  207.68   11.60
   8   6  -2  194.48    8.30
  -8  -6   2  183.88   11.00
   7   6  -2    1.50    1.70
   7   6  -2    4.30    2.80
  -7  -6   2    0.30    2.40
   6   6  -2  759.62   17.80
   6   6  -2  756.72   21.80
  -6  -6   2  778.62   21.10
   5   6  -2  572.54   14.50
   5   6  -2  597.34   17.80
  -5  -6   2  555.84   16.50
   4   6  -2  628.24   15.30
   4   6  -2  622.44   17.70
   4   6  -2  667.93   15.30
  -4  -6   2  626.14   17.00
   3   6  -2  208.88    7.60
   3   6  -2  212.58    7.80
  -3  -6   2  211.68    8.50
  -3  -6   2  228.48   13.80
   2   6  -2  951.30   21.40
   2   6  -2  997.30   20.50
   2   6  -2  945.01   20.00
  -2  -6   2  988.20   21.20
  -2  -6   2  959.50   20.70
  -2  -6   2 1016.70   20.40
   1   6  -2 2697.33   45.90
   1   6  -2 2781.72   46.30
   1   6  -2 2803.12   46.60
   1   6  -2 2692.03   45.80
   1   6  -2 2776.72   46.50
   1   6  -2 2710.03   45.90
  -1  -6   2 2726.63   45.90
  -1  -6   2 2809.62   46.10
  -1  -6   2 2793.02   46.30
   0   6  -2  269.67    8.60
   0   6  -2  272.27    8.50
   0   6  -2  275.57    9.00
   0  -6   2  273.77    9.10
   0  -6   2  279.07    8.30
  -1   6  -2   18.70    2.20
  -1   6  -2   16.10    2.90
  -1   6  -2   16.00    2.40
   1  -6   2   17.40    2.20
   1  -6   2   14.10    2.30
   1  -6   2   20.80    3.00
  -2   6  -2 2079.39   35.50
  -2   6  -2 2067.29   33.30
   2  -6   2 1968.80   35.20
   2  -6   2 2079.39   33.20
   2  -6   2 2063.29   37.10
  -3   6  -2 2354.96   40.40
  -3   6  -2 2333.17   36.70
   3  -6   2 2340.07   41.80
   3  -6   2 2320.07   39.90
  -4   6  -2   37.60    3.90
  -4   6  -2   43.30    2.60
   4  -6   2   40.40    2.80
   4  -6   2   32.90    4.80
  -5   6  -2    8.70    1.50
  -5   6  -2   11.50    2.80
   5  -6   2    4.80    2.20
  -6   6  -2 2227.28   40.90
  -6   6  -2 2155.18   35.40
   6  -6   2 2223.88   42.10
   6  -6   2 2176.58   35.40
  -7   6  -2  849.52   17.00
  -7   6  -2  917.31   22.30
   7  -6   2  838.72   22.30
   7  -6   2  875.01   17.40
  -8   6  -2  102.89    7.30
  -8   6  -2   96.39    5.20
   8  -6   2  104.89    7.30
  -9   6  -2  321.37   13.40
  -9   6  -2  347.97   14.70
   9  -6   2  330.07   13.90
   9  -6   2  331.37   10.30
   9  -6   2  328.57   10.30
 -10   6  -2  390.06   15.60
  10  -6   2  404.86   12.30
 -11   6  -2  342.97   15.20
  11  -6   2  334.17   14.90
  11  -6   2  331.57   11.70
 -12   6  -2   -2.10    3.10
  12  -6   2   -2.60    2.70
  12  -6   2   -6.00    2.80
  10   5  -2   31.50    5.60
 -10  -5   2   37.10    5.90
   9   5  -2   82.29    7.70
   9   5  -2   69.79    5.00
  -9  -5   2   72.79    7.30
   8   5  -2    0.70    1.50
  -8  -5   2   -2.80    2.50
   7   5  -2  262.97    8.90
   7   5  -2  249.38    8.60
   7   5  -2  262.87   12.00
  -7  -5   2  236.18    8.40
  -7  -5   2  250.27   11.40
   6   5  -2  668.73   19.30
   6   5  -2  657.13   15.00
  -6  -5   2  640.54   15.00
  -6  -5   2  680.63   18.80
   5   5  -2   56.99    3.90
   5   5  -2   59.49    4.10
   5   5  -2   59.89    5.40
  -5  -5   2   57.59    4.60
  -5  -5   2   62.49    5.30
   4   5  -2  377.26   10.10
   4   5  -2  401.86   11.60
  -4  -5   2  356.86   11.70
   3   5  -2    7.90    1.90
   3   5  -2    4.20    1.80
   3   5  -2    7.30    1.70
  -3  -5   2    4.50    1.90
   2   5  -2 2016.80   35.40
   2   5  -2 2013.80   33.80
   2   5  -2 1973.40   34.80
   2   5  -2 1961.10   33.40
   2   5  -2 1942.11   34.60
  -2  -5   2 1941.31   34.60
  -2  -5   2 1968.40   33.50
  -2  -5   2 2026.60   35.00
   1   5  -2  150.88    5.80
   1   5  -2  147.89    6.80
   1   5  -2  139.59    5.80
   1   5  -2  141.29    5.80
   1   5  -2  150.08    6.10
   1   5  -2  144.99    5.80
  -1  -5   2  155.28    5.90
  -1  -5   2  156.08    6.20
  -1  -5   2  146.59    5.70
   0   5  -2  122.69    5.30
   0   5  -2  111.29    4.70
   0   5  -2  119.39    6.10
   0   5  -2  124.89    4.90
   0   5  -2  123.69    5.30
   0  -5   2  117.69    5.10
   0  -5   2  123.69    4.90
   0  -5   2  119.89    5.40
  -1   5  -2 3326.67   53.39
  -1   5  -2 3412.86   53.19
  -1   5  -2 3337.77   53.99
  -1   5  -2 3404.76   51.49
   1  -5   2 3292.37   53.09
   1  -5   2 3422.56   57.19
   1  -5   2 3357.56   53.19
  -2   5  -2 1817.52   29.20
  -2   5  -2 1853.81   32.10
  -2   5  -2 1843.32   33.00
   2  -5   2 1884.31   34.40
   2  -5   2 1856.21   29.10
   2  -5   2 1866.11   33.10
  -3   5  -2  539.15   14.00
  -3   5  -2  538.45   10.00
   3  -5   2  527.35    9.90
   3  -5   2  515.85   12.70
   3  -5   2  533.95   13.80
  -4   5  -2    6.90    2.00
  -4   5  -2    7.30    1.20
   4  -5   2    9.30    2.20
   4  -5   2   11.70    1.40
   4  -5   2    9.00    2.30
  -5   5  -2  212.38    8.40
  -5   5  -2  205.88    5.60
   5  -5   2  203.08    5.70
   5  -5   2  207.78    8.60
  -6   5  -2  727.03   14.30
  -6   5  -2  738.33   21.60
   6  -5   2  737.03   18.80
   6  -5   2  723.33   14.40
  -7   5  -2  558.44   12.80
  -7   5  -2  593.24   16.80
   7  -5   2  569.44   16.80
   7  -5   2  575.14   13.00
  -8   5  -2    0.90    1.40
  -8   5  -2    2.40    2.30
   8  -5   2   -0.20    1.70
   8  -5   2    0.60    1.40
  -9   5  -2  243.88   11.70
   9  -5   2  239.88   11.20
   9  -5   2  237.38    8.80
 -10   5  -2  360.26   15.00
  10  -5   2  375.66   14.70
  11  -5   2   20.80    3.80
  11  -5   2   16.80    4.00
 -12   5  -2   14.00    4.20
  12  -5   2   29.60    5.30
  12  -5   2    6.10    3.80
  11   4  -2  356.36   16.80
 -11  -4   2  409.26   17.40
  10   4  -2  141.89   10.00
  10   4  -2  121.29    6.30
 -10  -4   2  152.18   10.50
   9   4  -2   86.69    7.60
   9   4  -2   88.49    5.20
  -9  -4   2   82.79    7.40
   8   4  -2  372.16   10.60
   8   4  -2  368.86   14.80
  -8  -4   2  360.66   10.50
  -8  -4   2  365.16   14.30
   7   4  -2  992.90   25.10
   7   4  -2  946.91   19.30
   7   4  -2 1019.00   20.40
  -7  -4   2  941.01   20.60
  -7  -4   2  977.90   24.30
   6   4  -2   99.49    6.70
   6   4  -2   95.79    4.50
   6   4  -2  110.69    5.00
  -6  -4   2  101.29    6.60
  -6  -4   2   96.09    4.60
   5   4  -2   24.90    2.60
   5   4  -2   31.40    3.90
   5   4  -2   27.00    2.50
  -5  -4   2   25.50    2.60
   4   4  -2 4239.58   64.39
   4   4  -2 4240.18   64.19
   4   4  -2 4262.17   68.79
  -4  -4   2 4151.38   64.19
  -4  -4   2 4196.08   67.99
   3   4  -2  945.51   20.30
   3   4  -2  945.01   19.90
   3   4  -2  985.00   17.90
   3   4  -2  984.80   17.80
   3   4  -2  990.30   20.20
  -3  -4   2  967.30   20.10
  -3  -4   2  946.21   20.20
   2   4  -2 1941.71   31.60
   2   4  -2 1916.61   31.40
   2   4  -2 1888.41   35.90
   2   4  -2 1930.51   40.20
   2   4  -2 1999.30   33.70
  -2  -4   2 1914.11   31.40
  -2  -4   2 1915.51   33.20
   1   4  -2  578.04   12.00
   1   4  -2  588.34   12.80
   1   4  -2  564.44   12.50
   1   4  -2  584.14   13.00
   1   4  -2  587.94   12.40
  -1  -4   2  579.24   12.30
  -1  -4   2  566.14   12.70
  -1  -4   2  568.94   12.00
   0   4  -2 5030.70   74.69
   0   4  -2 5040.70   76.19
   0   4  -2 5025.00   76.09
   0   4  -2 5092.89   76.79
   0   4  -2 5008.80   75.89
   0  -4   2 5054.59   76.19
   0  -4   2 4983.50   76.39
  -1   4  -2 4694.03   72.39
  -1   4  -2 4693.33   71.99
  -1   4  -2 4931.71   69.79
  -1   4  -2 4758.52   72.29
  -1   4  -2 4847.12   69.79
   1  -4   2 4784.72   72.59
   1  -4   2 4735.43   69.59
   1  -4   2 4587.94   71.99
  -2   4  -2 2052.79   35.10
  -2   4  -2 2025.50   31.50
  -2   4  -2 2088.99   34.40
   2  -4   2 2024.90   30.70
   2  -4   2 2019.70   34.10
   2  -4   2 2096.19   35.10
  -3   4  -2  189.88    6.80
  -3   4  -2  184.18    6.90
   3  -4   2  189.68    4.10
  -4   4  -2 1221.28   23.90
  -4   4  -2 1212.88   24.10
  -4   4  -2 1215.78   19.60
   4  -4   2 1201.08   23.70
   4  -4   2 1237.38   19.70
   4  -4   2 1215.78   24.30
  -5   4  -2 2874.61   44.30
  -5   4  -2 2886.21   49.10
   5  -4   2 2884.31   49.40
   5  -4   2 2905.71   44.50
  -6   4  -2   18.30    2.10
  -6   4  -2   21.70    3.90
   6  -4   2   24.90    2.50
   6  -4   2   14.60    3.30
  -7   4  -2  168.78    8.20
  -7   4  -2  168.38    8.50
   7  -4   2  173.48    6.50
   7  -4   2  173.98    8.50
   7  -4   2  169.78    6.70
  -8   4  -2  938.41   20.20
  -8   4  -2  987.30   24.30
   8  -4   2  991.30   20.60
   8  -4   2 1007.60   24.10
   8  -4   2  955.10   19.90
  -9   4  -2  750.32   21.50
   9  -4   2  740.23   17.90
   9  -4   2  733.63   20.70
 -10   4  -2   24.40    4.80
  10  -4   2   23.20    3.80
  10  -4   2   35.10    5.40
 -11   4  -2   41.80    6.30
  11  -4   2   47.50    5.30
  11  -4   2   35.30    6.50
 -12   4  -2  399.76   17.30
  12  -4   2  376.26   14.10
  12  -4   2  379.86   15.70
  12   3  -2  177.08   13.70
 -12  -3   2  165.48   14.00
  11   3  -2    3.60    2.20
  11   3  -2   16.80    4.70
 -11  -3   2    8.60    3.50
  10   3  -2   -2.70    2.10
  10   3  -2    0.80    1.60
 -10  -3   2    5.40    3.10
   9   3  -2  286.47   13.00
   9   3  -2  296.17    9.20
  -9  -3   2  288.17    9.20
  -9  -3   2  301.67   13.70
   8   3  -2  359.16   11.50
   8   3  -2  378.66   14.30
  -8  -3   2  365.46   13.90
  -8  -3   2  371.86   10.50
   7   3  -2   13.30    3.20
   7   3  -2    8.00    1.90
  -7  -3   2    5.60    1.70
  -7  -3   2   10.50    2.90
   6   3  -2    2.90    2.00
   6   3  -2    4.90    1.40
  -6  -3   2    3.40    1.30
  -6  -3   2    5.20    2.20
   5   3  -2  132.19    6.80
   5   3  -2  128.79    6.60
  -5  -3   2  129.19    4.60
  -5  -3   2  135.39    6.90
   4   3  -2  384.36   12.30
   4   3  -2  362.06    8.10
   4   3  -2  357.76   10.70
   4   3  -2  368.46   11.10
   4   3  -2  353.46    8.00
  -4  -3   2  360.86    8.00
  -4  -3   2  361.36   10.70
  -4  -3   2  362.76   11.10
   3   3  -2  987.30   19.90
   3   3  -2 1013.70   17.20
   3   3  -2 1022.20   17.30
   3   3  -2 1016.60   20.00
   3   3  -2 1016.20   20.70
  -3  -3   2 1013.50   20.40
  -3  -3   2 1022.60   20.70
   2   3  -2 1231.88   20.20
   2   3  -2 1210.88   22.30
   2   3  -2 1214.18   22.20
   2   3  -2 1232.28   20.10
   2   3  -2 1266.07   22.20
  -2  -3   2 1206.08   20.10
  -2  -3   2 1248.48   22.50
  -2  -3   2 1225.38   22.30
   1   3  -2  385.86    8.00
   1   3  -2  378.26    9.10
   1   3  -2  371.76    8.50
  -1  -3   2  382.36    8.10
  -1  -3   2  369.96    9.00
  -1  -3   2  378.36    8.70
   0   3  -2 2169.78   34.90
   0   3  -2 2282.87   35.70
   0   3  -2 2242.28   35.70
   0   3  -2 2243.18   34.00
   0   3  -2 2222.78   34.20
   0  -3   2 2256.97   35.10
   0  -3   2 2204.28   35.60
   0  -3   2 2209.58   35.60
  -1   3  -2    1.50    1.10
  -1   3  -2    0.90    1.10
  -1   3  -2    1.80    0.60
  -1   3  -2    1.10    0.60
   1  -3   2    2.10    0.60
   1  -3   2    1.80    1.10
   1  -3   2    1.50    1.10
  -2   3  -2   66.39    3.60
  -2   3  -2   65.59    3.60
   2  -3   2   65.09    3.60
   2  -3   2   65.49    3.50
  -3   3  -2 1042.70   20.20
  -3   3  -2 1069.49   16.40
  -3   3  -2 1032.00   20.30
   3  -3   2 1056.19   20.20
   3  -3   2 1059.79   20.60
   3  -3   2 1068.39   16.40
  -4   3  -2    5.40    1.00
  -4   3  -2    7.00    1.70
   4  -3   2    4.40    1.00
   4  -3   2    4.60    1.00
   4  -3   2    3.60    1.50
   4  -3   2    7.10    2.30
  -5   3  -2   48.60    2.80
  -5   3  -2   50.49    4.40
   5  -3   2   51.49    3.20
   5  -3   2   50.59    2.80
   5  -3   2   50.19    4.00
  -6   3  -2    0.50    1.00
  -6   3  -2    0.90    2.00
   6  -3   2    0.50    1.50
   6  -3   2    0.10    1.00
   6  -3   2   -0.70    0.90
  -7   3  -2 1033.40   20.80
  -7   3  -2 1091.69   24.60
   7  -3   2 1001.70   20.30
   7  -3   2 1058.59   23.70
  -8   3  -2  222.38   10.40
   8  -3   2  223.88    9.90
   8  -3   2  229.38    8.60
  -9   3  -2  159.68    9.60
   9  -3   2  165.68    9.10
 -10   3  -2   93.89    7.70
  10  -3   2   96.79    6.70
  10  -3   2  100.99    7.70
 -11   3  -2  129.99    9.50
  11  -3   2  132.39    8.20
  11  -3   2  119.89    9.80
 -12   3  -2  154.68   10.90
  12  -3   2  146.99    9.70
  12  -3   2  134.19    9.20
  12   2  -2  143.69   10.60
  12   2  -2  169.18   10.90
 -12  -2   2  160.88   11.10
  11   2  -2   25.20    3.40
  11   2  -2   30.80    5.80
 -11  -2   2   26.70    5.10
  10   2  -2  158.08   10.20
  10   2  -2  143.29    6.40
 -10  -2   2  150.18   10.00
   9   2  -2  835.82   23.40
   9   2  -2  872.01   23.20
  -9  -2   2  857.41   23.60
  -9  -2   2  815.22   17.90
   8   2  -2 1345.87   24.40
   8   2  -2 1347.57   30.40
  -8  -2   2 1301.37   26.80
  -8  -2   2 1342.27   30.30
   7   2  -2   36.40    4.80
  -7  -2   2   33.10    4.50
  -7  -2   2   34.40    2.90
   6   2  -2  377.86    8.90
  -6  -2   2  357.96    8.60
   5   2  -2 1427.06   27.90
   5   2  -2 1391.96   23.10
  -5  -2   2 1425.26   27.60
  -5  -2   2 1405.56   23.10
   4   2  -2 1065.49   21.10
   4   2  -2 1004.90   23.80
   4   2  -2 1061.39   21.20
   4   2  -2 1103.49   17.50
  -4  -2   2 1072.89   21.50
  -4  -2   2 1088.19   24.10
  -4  -2   2 1083.89   17.50
   3   2  -2   91.09    4.40
   3   2  -2   96.09    2.70
   3   2  -2   95.09    4.60
  -3  -2   2   98.39    4.60
  -3  -2   2  101.39    4.70
   1   2  -2 2934.91   44.80
   1   2  -2 2945.21   43.10
   1   2  -2 2880.31   44.30
  -1  -2   2 2922.91   46.50
  -1  -2   2 2890.51   44.20
   0   2  -2   17.10    2.00
   0   2  -2   16.40    2.00
   0   2  -2   16.20    1.60
   0   2  -2   23.60    1.50
   0  -2   2   20.20    1.80
   0  -2   2   19.30    1.90
  -1   2  -2  144.29    4.80
  -1   2  -2  143.29    4.60
   1  -2   2  151.18    4.80
   1  -2   2  149.29    4.70
  -2   2  -2  813.62   15.90
  -2   2  -2  838.12   15.90
   2  -2   2  851.31   12.60
   2  -2   2  835.92   12.70
   2  -2   2  834.12   16.00
   2  -2   2  864.31   16.10
  -3   2  -2 2007.90   34.10
  -3   2  -2 2031.70   34.10
   3  -2   2 2077.89   30.80
   3  -2   2 2055.59   30.90
   3  -2   2 2004.70   34.30
   3  -2   2 2020.40   34.00
  -4   2  -2  668.83   12.60
  -4   2  -2  646.34   14.80
   4  -2   2  653.03   12.60
   4  -2   2  674.03   15.30
   4  -2   2  654.53   15.00
   4  -2   2  673.73   12.50
  -5   2  -2  491.35   10.90
  -5   2  -2  456.85   12.50
  -5   2  -2  466.15   12.90
   5  -2   2  478.45   12.70
   5  -2   2  475.65   10.60
   5  -2   2  472.95   10.80
  -6   2  -2 1766.12   34.50
   6  -2   2 1765.12   33.50
   6  -2   2 1781.32   32.80
   6  -2   2 1804.02   31.20
  -7   2  -2 1720.93   31.80
  -7   2  -2 1760.52   35.00
   7  -2   2 1773.12   32.20
   7  -2   2 1736.73   31.40
  -8   2  -2  241.28   10.80
   8  -2   2  252.57   10.40
   8  -2   2  235.68    9.20
  -9   2  -2  315.57   13.10
   9  -2   2  294.07   11.10
   9  -2   2  294.67   11.90
 -10   2  -2  126.99    9.30
  10  -2   2  138.49    8.20
  10  -2   2  129.49    7.70
 -11   2  -2  611.54   21.10
  11  -2   2  602.74   19.20
  11  -2   2  596.14   18.60
 -12   2  -2   43.40    6.60
  12  -2   2   57.79    6.60
  12  -2   2   38.20    8.40
  12   1  -2   74.29    8.30
  12   1  -2   72.49    5.60
 -12  -1   2   52.39    7.20
  11   1  -2   -1.60    2.60
  11   1  -2    3.10    1.70
 -11  -1   2    6.10    3.50
  10   1  -2  402.56   11.40
  10   1  -2  400.96   15.60
 -10  -1   2  385.96   18.50
   9   1  -2  213.48   10.60
   9   1  -2  203.28   10.50
  -9  -1   2  198.98    7.60
  -9  -1   2  207.48   10.60
   8   1  -2   26.80    4.30
   8   1  -2   31.60    3.10
  -8  -1   2   31.20    3.20
  -8  -1   2   33.70    4.90
   7   1  -2    1.50    1.20
  -7  -1   2    4.80    1.50
  -7  -1   2    2.90    1.90
   6   1  -2  895.01   20.30
  -6  -1   2  851.51   15.90
  -6  -1   2  850.61   19.90
   5   1  -2   94.49    3.40
   5   1  -2  100.09    5.30
   5   1  -2  105.89    5.60
  -5  -1   2  100.49    3.50
  -5  -1   2   96.89    5.30
  -5  -1   2   91.49    5.10
   4   1  -2  158.68    6.30
   4   1  -2  149.49    3.70
  -4  -1   2  156.68    6.10
  -4  -1   2  158.68    3.90
  -4  -1   2  146.59    7.10
   3   1  -2 2637.84   38.70
   3   1  -2 2715.73   43.20
   3   1  -2 2656.03   42.70
  -3  -1   2 2721.93   38.80
  -3  -1   2 2701.83   43.10
  -3  -1   2 2712.13   42.90
   1   1  -2  613.74   11.20
   1   1  -2  594.54    9.70
   1   1  -2  609.44   11.20
  -1  -1   2  614.14   11.20
  -1  -1   2  609.34   11.20
  -1  -1   2  615.14    9.70
   0   1  -2  137.49    3.90
   0   1  -2  141.49    3.40
   0   1  -2  132.59    3.60
   0   1  -2  140.69    4.00
   0  -1   2  137.09    3.70
   0  -1   2  133.49    3.90
  -1   1  -2    2.50    0.70
  -1   1  -2    2.40    1.10
  -1   1  -2    4.90    1.20
   1  -1   2    2.70    1.20
   1  -1   2    4.20    0.80
   1  -1   2    3.80    1.10
  -2   1  -2 2141.09   34.80
  -2   1  -2 2175.18   34.80
  -2   1  -2 2156.68   32.60
   2  -1   2 2147.59   32.60
   2  -1   2 2194.98   35.00
   2  -1   2 2182.28   34.80
  -3   1  -2  482.85   11.30
  -3   1  -2  482.35   11.30
  -3   1  -2  473.15    9.60
   3  -1   2  481.05   11.30
   3  -1   2  479.75    9.70
   3  -1   2  467.85   11.10
   3  -1   2  481.65    9.60
   4  -1   2  119.59    4.50
   4  -1   2  116.99    5.40
   4  -1   2  126.59    4.70
   4  -1   2  113.19    5.40
  -5   1  -2 1259.67   24.80
  -5   1  -2 1299.57   25.60
   5  -1   2 1280.27   25.00
   5  -1   2 1260.47   23.10
   5  -1   2 1248.08   23.40
  -6   1  -2 1105.99   26.70
   6  -1   2 1047.40   21.20
   6  -1   2 1057.69   22.80
   6  -1   2 1069.79   21.70
  -7   1  -2   61.59    5.60
   7  -1   2   59.69    8.00
   7  -1   2   60.09    4.70
  -8   1  -2    7.00    2.90
   8  -1   2    7.20    2.50
   8  -1   2    9.30    2.50
  -9   1  -2  130.69    8.60
   9  -1   2  133.99    8.00
 -10   1  -2   31.50    5.50
  10  -1   2   34.80    4.90
  10  -1   2   33.10    5.00
 -11   1  -2  215.78   12.20
  11  -1   2  210.98   11.10
  11  -1   2  209.98   10.90
 -12   1  -2   -0.70    2.60
  12  -1   2   -3.40    2.50
  12  -1   2   -0.30    2.80
  12   0  -2  280.97   14.30
  12   0  -2  266.47    9.80
 -12   0   2  278.17   14.40
  11   0  -2  312.77   10.60
  11   0  -2  312.47   14.30
 -11   0   2  323.07   14.40
  10   0  -2  242.08   11.80
  10   0  -2  247.28    8.70
 -10   0   2  246.28   11.90
   9   0  -2  149.59    8.90
   9   0  -2  128.99    5.90
  -9   0   2  131.19    6.20
  -9   0   2  149.49    8.70
   8   0  -2  577.04   13.30
   8   0  -2  588.94   17.20
  -8   0   2  574.24   16.80
   7   0  -2 1331.07   24.00
  -7   0   2 1358.56   24.30
  -7   0   2 1390.16   28.40
   6   0  -2  413.16   12.20
   6   0  -2  394.26    9.10
  -6   0   2  388.76   11.70
  -6   0   2  405.56    9.30
   5   0  -2   32.30    3.40
   5   0  -2   31.20    2.10
   5   0  -2   26.50    3.10
  -5   0   2   33.60    2.20
  -5   0   2   33.40    3.20
  -5   0   2   28.80    3.00
   4   0  -2 2395.16   39.40
   4   0  -2 2351.86   35.60
   4   0  -2 2330.57   38.60
  -4   0   2 2364.36   38.80
  -4   0   2 2358.26   35.70
  -4   0   2 2323.27   39.10
   1   0  -2  297.87    7.50
   1   0  -2  281.07    6.50
   1   0  -2  288.37    5.80
  -1   0   2  273.27    6.40
  -1   0   2  284.27    5.60
  -1   0   2  280.37    5.80
  -2   0  -2  425.16    9.00
  -2   0  -2  442.56   10.00
  -2   0  -2  446.16   11.10
   2   0   2  441.96    9.70
   2   0   2  431.06    9.10
   2   0   2  436.46   10.00
  -3   0  -2  208.08    6.70
  -3   0  -2  209.28    6.10
  -3   0  -2  211.68    6.80
   3   0   2  207.58    6.60
   3   0   2  203.98    6.20
   3   0   2  207.18    6.10
   3   0   2  203.28    6.70
  -4   0  -2 1437.36   27.20
  -4   0  -2 1508.75   26.00
   4   0   2 1395.26   26.70
   4   0   2 1476.75   27.40
   4   0   2 1479.35   25.80
   4   0   2 1465.15   26.20
  -5   0  -2 2823.52   48.40
  -5   0  -2 2900.11   49.20
   5   0   2 2976.80   49.00
   5   0   2 2927.81   47.70
   6   0   2  237.38    9.10
   6   0   2  246.98    8.90
  -7   0  -2   38.00    5.00
   7   0   2   39.50    4.20
  -8   0  -2 1120.99   26.90
   8   0   2 1111.29   25.60
   8   0   2 1092.39   25.30
  -9   0  -2  348.27   14.20
   9   0   2  359.76   13.40
   9   0   2  354.36   13.40
 -10   0  -2   81.89    7.60
  10   0   2   74.59    6.60
  10   0   2   77.99    6.60
 -11   0  -2   36.10    6.20
  11   0   2   39.70    5.80
  11   0   2   23.90    4.70
 -12   0  -2  211.88   20.00
  12   0   2  178.88   10.30
  12   0   2  150.48   10.50
  13  -1  -2   58.89    7.10
  13  -1  -2   60.99    5.30
  12  -1  -2  325.47   15.10
  12  -1  -2  344.87   12.00
 -12   1   2  339.17   15.40
  11  -1  -2   52.59    5.40
 -11   1   2   56.79    6.60
  10  -1  -2  221.58    8.40
  10  -1  -2  232.38   11.40
 -10   1   2  211.28   10.90
   9  -1  -2  193.28    9.70
   9  -1  -2  192.88    7.50
  -9   1   2  195.78    9.80
  -9   1   2  163.88   10.20
   8  -1  -2    2.50    2.40
  -8   1   2    3.70    2.80
  -8   1   2    4.20    1.80
   7  -1  -2  534.15   12.50
   7  -1  -2  551.64   15.30
  -7   1   2  593.34   17.90
  -7   1   2  524.25   12.60
   6  -1  -2  482.55   13.40
   6  -1  -2  485.65   11.00
  -6   1   2  476.15   11.00
  -6   1   2  491.05   13.10
   5  -1  -2 1382.16   25.60
   5  -1  -2 1401.26   23.70
   5  -1  -2 1336.17   28.90
  -5   1   2 1480.55   32.20
  -5   1   2 1375.26   26.10
  -5   1   2 1375.36   23.60
   4  -1  -2 1772.02   29.90
   4  -1  -2 1786.92   28.50
   4  -1  -2 1789.12   31.00
  -4   1   2 1773.22   29.90
  -4   1   2 1777.42   28.40
  -4   1   2 1722.63   30.60
   3  -1  -2  488.65   11.20
   3  -1  -2  491.55   10.10
   3  -1  -2  508.95    9.80
  -3   1   2  498.55   10.20
  -3   1   2  486.75   11.10
  -3   1   2  491.95    9.70
   2  -1  -2  321.97    7.00
   2  -1  -2  328.47    6.60
   2  -1  -2  308.97    9.00
  -2   1   2  330.27    7.10
  -2   1   2  325.17    7.90
  -2   1   2  321.57    6.60
  -2   1   2  329.77    7.00
   1  -1  -2   24.40    1.20
   1  -1  -2   27.50    2.40
   1  -1  -2   24.50    1.20
   1  -1  -2   25.80    2.10
  -1   1   2   23.70    1.20
  -1   1   2   25.80    1.90
  -1   1   2   26.30    2.00
   0  -1  -2  117.39    2.90
   0  -1  -2  112.69    4.10
   0  -1  -2  118.39    4.20
   0   1   2  117.19    4.20
   0   1   2  119.59    4.20
   0   1   2  121.49    2.90
  -1  -1  -2  499.95   10.70
  -1  -1  -2  484.95    9.30
   1   1   2  485.75   10.30
   1   1   2  492.15   10.70
   1   1   2  485.45    9.30
  -2  -1  -2    8.40    1.60
  -2  -1  -2   11.20    1.70
  -2  -1  -2    7.20    1.50
   2   1   2    7.30    1.60
   2   1   2    8.40    1.50
   2   1   2    9.40    1.50
  -3  -1  -2 2864.01   46.10
  -3  -1  -2 2869.61   46.10
  -3  -1  -2 2898.61   46.70
   3   1   2 2816.82   46.00
   3   1   2 2889.81   46.10
   3   1   2 2949.21   46.90
  -4  -1  -2  801.32   20.70
  -4  -1  -2  871.51   18.70
   4   1   2  881.41   18.00
   4   1   2  871.01   18.30
  -5  -1  -2  467.85   13.10
  -5  -1  -2  480.05   12.80
   5   1   2  492.65   13.20
   5   1   2  482.75   13.10
  -6  -1  -2  126.09    7.00
   6   1   2  123.69    6.50
   6   1   2  132.19    6.90
  -7  -1  -2  689.73   18.90
   7   1   2  670.33   18.00
   7   1   2  689.63   18.40
  -8  -1  -2  312.07   12.80
   8   1   2  314.57   12.10
   8   1   2  301.87   12.10
  -9  -1  -2   12.40    3.80
   9   1   2   10.90    3.20
   9   1   2    2.70    2.60
 -10  -1  -2   13.40    4.20
  10   1   2   15.10    3.70
  10   1   2   20.40    4.40
 -11  -1  -2  156.28   10.70
  11   1   2  163.18   10.60
  13  -2  -2  267.97   10.90
  13  -2  -2  259.77   13.80
 -13   2   2  263.57   13.90
  12  -2  -2  433.26   17.20
  12  -2  -2  408.96   13.40
 -12   2   2  435.86   17.50
  11  -2  -2   10.90    2.70
  11  -2  -2   13.80    3.80
 -11   2   2   14.20    4.40
  10  -2  -2  300.07   12.30
  10  -2  -2  285.57   12.60
 -10   2   2  308.57   13.20
   9  -2  -2  183.78    7.70
   9  -2  -2  200.38    9.90
  -9   2   2  177.98    9.30
   8  -2  -2  669.83   18.10
   8  -2  -2  684.33   15.80
  -8   2   2  664.53   17.90
  -8   2   2  660.33   15.80
   7  -2  -2   58.59    5.10
  -7   2   2   62.89    5.00
  -7   2   2   60.59    4.00
   6  -2  -2  283.17    8.40
   6  -2  -2  278.77    9.60
   6  -2  -2  288.97    9.40
  -6   2   2  280.47    9.30
  -6   2   2  288.77    8.40
   5  -2  -2 5308.27   79.59
   5  -2  -2 5269.97   88.59
   5  -2  -2 5132.29   85.09
  -5   2   2 5319.07   80.39
  -5   2   2 5265.07   79.49
  -5   2   2 5233.18   81.39
   4  -2  -2  680.93   13.80
   4  -2  -2  682.03   14.00
   4  -2  -2  693.03   15.20
  -4   2   2  693.53   15.10
  -4   2   2  712.83   14.00
  -4   2   2  691.43   14.00
   3  -2  -2   11.80    1.80
   3  -2  -2   14.60    1.60
   3  -2  -2   12.70    2.00
  -3   2   2   10.90    1.40
  -3   2   2   13.40    1.80
  -3   2   2   15.20    2.10
   2  -2  -2 1884.51   30.70
   2  -2  -2 1882.51   31.30
  -2   2   2 1888.11   30.80
  -2   2   2 1912.01   31.30
  -2   2   2 1856.11   30.60
  -2   2   2 1868.51   28.10
   1  -2  -2 1690.03   28.10
   1  -2  -2 1695.73   28.20
  -1   2   2 1676.13   27.90
  -1   2   2 1672.63   28.10
  -1   2   2 1699.63   28.20
   0  -2  -2 3120.39   48.70
   0  -2  -2 3121.89   45.20
   0  -2  -2 3111.89   48.80
   0   2   2 3209.48   45.30
   0   2   2 3047.09   48.50
   0   2   2 3107.69   48.80
  -1  -2  -2  194.58    5.00
  -1  -2  -2  197.68    6.30
  -1  -2  -2  197.68    6.40
   1   2   2  206.78    6.60
   1   2   2  197.88    6.30
   1   2   2  199.78    5.00
  -2  -2  -2  104.19    4.80
  -2  -2  -2  113.99    4.30
  -2  -2  -2  110.39    4.90
   2   2   2  105.79    4.20
   2   2   2  110.39    5.00
   2   2   2  109.59    5.00
  -3  -2  -2 3817.22   58.89
  -3  -2  -2 3758.22   59.89
   3   2   2 3691.43   58.49
   3   2   2 3740.73   59.69
  -4  -2  -2 1033.70   21.80
  -4  -2  -2 1063.19   22.10
  -4  -2  -2 1077.69   21.70
   4   2   2 1086.49   22.30
   4   2   2 1110.39   22.70
   4   2   2 1033.40   21.30
  -5  -2  -2  458.65   13.10
  -5  -2  -2  444.46   12.80
   5   2   2  428.66   12.70
   5   2   2  418.06   12.90
  -6  -2  -2  410.76   13.30
  -6  -2  -2  409.16   13.00
   6   2   2  393.66   13.10
   6   2   2  414.86   13.30
  -7  -2  -2 1866.91   38.10
   7   2   2 1946.01   37.50
   7   2   2 1890.01   38.40
  -8  -2  -2   99.49    7.70
   8   2   2  100.29    7.40
   8   2   2  101.09    7.10
  -9  -2  -2   31.40    8.40
   9   2   2   43.40    5.70
   9   2   2   29.60    4.80
 -10  -2  -2  524.25   19.30
  10   2   2  561.14   19.60
  10   2   2  524.75   17.60
 -11  -2  -2  356.06   16.20
  11   2   2  388.56   16.90
  11   2   2  365.06   14.90
  13  -3  -2   34.00    6.10
  13  -3  -2   36.20    4.90
  12  -3  -2    2.60    3.30
  12  -3  -2   11.90    3.20
 -12   3   2   12.90    4.20
  11  -3  -2   -4.50    2.40
  11  -3  -2    6.50    2.40
 -11   3   2   -5.10    2.30
  10  -3  -2  417.06   13.20
  10  -3  -2  414.26   15.10
 -10   3   2  422.76   15.40
   9  -3  -2   78.19    6.60
   9  -3  -2   88.09    5.90
  -9   3   2   86.99    6.50
   8  -3  -2   35.50    4.70
   8  -3  -2   29.50    3.60
  -8   3   2   29.80    4.00
   7  -3  -2 1113.89   24.10
   7  -3  -2 1104.89   22.60
  -7   3   2 1106.69   23.40
  -7   3   2 1079.99   22.80
   6  -3  -2  358.76   10.60
   6  -3  -2  351.76   10.40
   6  -3  -2  381.56   11.40
  -6   3   2  351.66   10.40
  -6   3   2  338.17   10.10
   5  -3  -2  387.56   10.10
   5  -3  -2  399.06   11.30
   5  -3  -2  383.56   10.70
  -5   3   2  389.66   10.00
  -5   3   2  398.26   11.20
  -5   3   2  403.86   11.00
   4  -3  -2   41.60    3.50
   4  -3  -2   35.10    2.70
   4  -3  -2   47.20    3.50
  -4   3   2   30.60    3.30
  -4   3   2   33.30    2.60
   3  -3  -2 1355.06   24.60
   3  -3  -2 1334.07   21.80
   3  -3  -2 1385.16   25.00
  -3   3   2 1339.97   24.40
  -3   3   2 1356.46   21.70
  -3   3   2 1339.07   24.70
  -3   3   2 1343.37   24.70
   2  -3  -2  333.57    9.00
   2  -3  -2  326.17    8.90
   2  -3  -2  318.57    5.70
  -2   3   2  332.47    8.90
  -2   3   2  317.77    8.80
  -2   3   2  343.37    9.20
  -2   3   2  321.87    5.70
   1  -3  -2   50.89    3.40
   1  -3  -2   55.09    3.50
  -1   3   2   60.99    3.70
  -1   3   2   53.49    3.50
  -1   3   2   49.50    3.20
   0  -3  -2  419.16   10.50
   0  -3  -2  407.56    7.30
   0  -3  -2  411.36   10.60
   0   3   2  414.76   10.70
   0   3   2  418.86   10.50
   0   3   2  410.96   10.40
  -1  -3  -2  108.09    5.20
  -1  -3  -2  105.19    4.10
  -1  -3  -2   95.49    5.80
   1   3   2   99.09    4.90
   1   3   2  104.59    5.10
   1   3   2  105.89    3.60
  -2  -3  -2 1356.76   25.80
  -2  -3  -2 1400.26   23.80
  -2  -3  -2 1373.96   25.90
   2   3   2 1352.96   23.60
   2   3   2 1353.56   25.90
   2   3   2 1349.47   28.70
  -3  -3  -2  432.56   12.00
  -3  -3  -2  433.86   12.30
  -3  -3  -2  455.95   11.40
   3   3   2  464.65   12.60
  -4  -3  -2   35.20    3.60
  -4  -3  -2   38.20    3.90
   4   3   2   34.20    4.00
   4   3   2   35.30    4.20
   4   3   2   35.90    3.70
  -5  -3  -2  345.07   11.40
  -5  -3  -2  343.57   11.80
   5   3   2  358.66   12.30
   5   3   2  347.57   11.70
  -6  -3  -2  313.97   11.80
  -6  -3  -2  315.67   11.60
   6   3   2  312.97   12.10
   6   3   2  302.37   11.40
  -7  -3  -2   86.99    6.60
   7   3   2   84.79    6.80
   7   3   2   85.19    6.50
  -8  -3  -2    6.20    3.00
   8   3   2    6.00    2.80
   8   3   2    4.10    2.60
  -9  -3  -2   87.39    7.70
   9   3   2   80.39    7.50
   9   3   2   73.29    6.80
 -10  -3  -2  249.48   13.00
  10   3   2  227.38   11.60
  10   3   2  228.78   12.80
 -11  -3  -2  103.39    9.10
  11   3   2   80.99    7.50
  11   3   2   86.49    8.90
  13  -4  -2   22.80    4.40
  13  -4  -2   25.30    5.20
 -13   4   2   27.60    5.30
  12  -4  -2   37.30    5.80
  12  -4  -2   33.00    4.90
 -12   4   2   27.00    5.30
  11  -4  -2  323.47   13.60
  11  -4  -2  281.47   11.60
 -11   4   2  285.97   19.60
  10  -4  -2  449.26   14.30
  10  -4  -2  423.16   15.10
 -10   4   2  455.05   15.70
   9  -4  -2   68.29    5.40
   9  -4  -2   66.69    5.90
  -9   4   2   60.79    5.40
   8  -4  -2  659.13   24.40
   8  -4  -2  669.43   18.20
  -8   4   2  692.93   17.80
   7  -4  -2  755.42   18.80
   7  -4  -2  750.52   18.00
  -7   4   2  731.93   17.60
   6  -4  -2 1408.96   28.00
   6  -4  -2 1411.66   27.60
   6  -4  -2 1388.46   26.50
  -6   4   2 1418.06   26.50
   5  -4  -2   -0.80    1.00
   5  -4  -2    3.00    1.60
   5  -4  -2    4.30    1.70
  -5   4   2    1.80    1.20
  -5   4   2    1.60    1.40
  -5   4   2   -1.40    1.00
   4  -4  -2   28.70    2.40
   4  -4  -2   30.60    3.40
   4  -4  -2   28.00    3.30
  -4   4   2   22.50    3.10
  -4   4   2   22.80    2.70
  -4   4   2   22.10    2.50
  -3   4   2 9999.00  147.99
   2  -4  -2  967.40   22.70
   2  -4  -2  981.00   15.00
  -2   4   2  979.60   14.90
  -2   4   2  971.70   14.90
  -2   4   2  987.80   22.90
  -2   4   2  955.10   19.80
  -2   4   2  957.10   19.60
   1  -4  -2    9.50    2.00
  -1   4   2    9.80    2.00
  -1   4   2   10.10    2.00
  -1   4   2    9.80    0.70
  -1   4   2   12.10    2.40
  -1   4   2   10.70    0.80
   0  -4  -2  670.53   11.40
   0  -4  -2  668.83   15.40
   0  -4  -2  650.43   15.50
   0   4   2  668.03   11.40
   0   4   2  649.64   15.20
   0   4   2  671.03   15.70
   0   4   2  660.83   15.40
  -1  -4  -2 2622.44   41.60
  -1  -4  -2 2627.94   44.30
  -1  -4  -2 2585.24   44.40
   1   4   2 2629.94   44.60
   1   4   2 2621.04   44.70
   1   4   2 2578.04   40.20
   1   4   2 2544.15   44.00
  -2  -4  -2 2618.24   42.30
  -2  -4  -2 2615.34   45.50
   2   4   2 2708.23   45.80
   2   4   2 2624.54   42.20
  -3  -4  -2   64.89    5.20
   3   4   2   70.89    4.20
   3   4   2   77.09    5.10
  -4  -4  -2 1229.48   24.70
  -4  -4  -2 1207.98   26.30
   4   4   2 1207.18   27.00
   4   4   2 1239.78   26.80
  -5  -4  -2  622.94   19.50
  -5  -4  -2  652.43   18.10
   5   4   2  648.14   17.50
   5   4   2  650.43   18.60
  -6  -4  -2  331.67   12.30
  -6  -4  -2  330.47   12.90
   6   4   2  342.17   13.50
   6   4   2  343.67   12.60
  -7  -4  -2   11.70    3.30
  -7  -4  -2   11.30    3.40
   7   4   2    7.70    3.30
   7   4   2    8.80    3.10
  -8  -4  -2  112.49    8.20
   8   4   2  125.39    9.10
   8   4   2  122.39    8.20
  -9  -4  -2  342.77   15.00
   9   4   2  353.86   14.10
   9   4   2  343.87   15.60
 -10  -4  -2  222.18   13.00
  10   4   2  218.18   11.60
  10   4   2  207.68   13.00
  12  -5  -2   56.39    5.80
  12  -5  -2   44.50    6.20
 -12   5   2   56.69    7.20
  11  -5  -2   57.09    6.60
  11  -5  -2   66.29    6.20
  10  -5  -2   29.20    5.00
  10  -5  -2   23.40    3.80
 -10   5   2   34.00    5.00
   9  -5  -2  149.69    8.60
   9  -5  -2  146.19    8.00
  -9   5   2  143.79    7.80
   8  -5  -2 1278.77   28.00
   8  -5  -2 1242.18   27.50
  -8   5   2 1310.67   27.20
   7  -5  -2   11.60    2.90
  -7   5   2   10.70    2.60
   6  -5  -2   51.59    4.50
   6  -5  -2   53.89    5.40
   6  -5  -2   61.69    4.20
   5  -5  -2  547.65   14.70
   5  -5  -2  561.94   12.60
   5  -5  -2  576.24   15.40
  -5   5   2  569.14   12.60
   4  -5  -2 1648.83   31.80
   4  -5  -2 1608.44   27.10
   4  -5  -2 1666.33   31.10
  -4   5   2 1696.03   32.20
   3  -5  -2  307.67   10.20
   3  -5  -2  294.07    9.60
   3  -5  -2  297.27    6.40
  -3   5   2  288.57    6.40
  -3   5   2  299.97    9.70
  -3   5   2  299.57   10.30
   2  -5  -2   83.29    5.10
   2  -5  -2   76.29    4.80
  -2   5   2   79.79    5.10
  -2   5   2   80.69    2.40
  -2   5   2   78.69    4.90
   1  -5  -2 1328.47   25.90
  -1   5   2 1305.37   20.20
  -1   5   2 1298.37   26.50
   0  -5  -2 1442.36   23.00
   0  -5  -2 1452.45   28.00
   0   5   2 1438.16   23.10
   0   5   2 1393.26   28.30
   0   5   2 1444.06   23.00
  -1  -5  -2  701.43   17.30
  -1  -5  -2  708.53   13.80
   1   5   2  713.53   17.60
   1   5   2  708.63   13.80
  -2  -5  -2  143.79    8.70
  -2  -5  -2  144.29    5.60
   2   5   2  147.89    7.40
   2   5   2  144.09    5.60
  -3  -5  -2  458.75   14.20
  -3  -5  -2  440.86   11.90
   3   5   2  471.65   14.10
   3   5   2  447.76   11.80
  -4  -5  -2   81.19    5.40
  -4  -5  -2   76.79    6.00
   4   5   2   72.89    5.80
   4   5   2   82.19    6.40
  -5  -5  -2  113.19    6.80
  -5  -5  -2  111.09    7.70
   5   5   2  114.19    7.30
   5   5   2  110.49    7.60
  -6  -5  -2    5.10    2.90
  -6  -5  -2    2.90    2.20
   6   5   2    3.40    2.60
   6   5   2    2.60    2.40
  -7  -5  -2  159.88   11.50
  -7  -5  -2  136.99    8.70
   7   5   2  131.59   10.90
   7   5   2  131.19    8.50
  -8  -5  -2  382.56   16.00
   8   5   2  405.56   15.30
   8   5   2  396.86   16.70
  -9  -5  -2    4.50    3.10
   9   5   2    1.60    2.80
   9   5   2    1.70    3.30
  12  -6  -2  153.48    9.60
  12  -6  -2  142.99    9.60
 -12   6   2  136.29    9.60
  11  -6  -2    8.20    3.30
 -11   6   2    9.10    3.70
  10  -6  -2   14.20    3.40
  10  -6  -2   17.40    3.90
 -10   6   2   13.00    3.40
   9  -6  -2  335.97   12.80
   9  -6  -2  308.67   12.40
  -9   6   2  327.47   12.10
   8  -6  -2  680.23   18.70
   8  -6  -2  682.83   19.10
  -8   6   2  672.23   17.80
   7  -6  -2  265.57   11.10
   7  -6  -2  295.47   11.10
  -7   6   2  292.87    9.70
   6  -6  -2  957.00   22.80
   6  -6  -2  911.41   19.20
   5  -6  -2  793.52   19.10
   5  -6  -2  791.32   20.00
   5  -6  -2  775.42   15.90
  -5   6   2  829.32   16.10
  -5   6   2  786.52   20.20
   4  -6  -2 1514.95   29.80
   4  -6  -2 1525.55   31.10
   4  -6  -2 1508.05   25.20
  -4   6   2 1509.55   31.20
   3  -6  -2   37.90    5.30
   3  -6  -2   23.50    1.80
   3  -6  -2   23.50    3.30
  -3   6   2   23.70    3.80
  -3   6   2   25.40    1.90
  -3   6   2   24.90    1.80
   2  -6  -2   34.00    5.10
   2  -6  -2   41.20    4.10
  -2   6   2   47.10    5.40
  -2   6   2   36.50    1.80
  -2   6   2   35.80    1.90
   1  -6  -2 1365.66   27.90
  -1   6   2 1380.36   21.80
  -1   6   2 1382.26   32.20
  -1   6   2 1396.36   21.90
   0  -6  -2 1040.30   31.70
   0  -6  -2 1141.49   19.60
   0   6   2 1077.49   18.70
   0   6   2 1107.89   18.90
   0   6   2 1105.09   24.70
  -1  -6  -2    2.20    2.00
  -1  -6  -2    8.80    1.70
   1   6   2   14.00    3.10
   1   6   2    8.10    1.70
  -2  -6  -2  502.05   15.40
  -2  -6  -2  531.35   12.70
   2   6   2  514.15   12.50
   2   6   2  520.95   15.70
  -3  -6  -2 1059.19   21.80
  -3  -6  -2 1058.49   25.30
   3   6   2 1064.19   25.00
  -4  -6  -2   73.29    5.40
  -4  -6  -2   80.69    6.40
   4   6   2   66.89    6.00
   4   6   2   67.79    6.30
  -5  -6  -2   22.80    3.70
  -5  -6  -2   25.30    4.60
   5   6   2   23.70    4.60
   5   6   2   29.10    4.50
  -6  -6  -2  510.95   18.80
  -6  -6  -2  517.25   16.60
   6   6   2  554.54   20.00
   6   6   2  566.94   18.00
  -7  -6  -2  631.34   19.80
  -7  -6  -2  632.54   21.10
   7   6   2  671.13   20.50
   7   6   2  669.33   22.40
  -8  -6  -2  170.58   10.50
   8   6   2  135.99    9.80
   8   6   2  149.29   10.60
  -9  -6  -2    5.50    3.60
   9   6   2    4.90    4.60
   9   6   2    1.80    3.30
  12  -7  -2   -1.30    3.10
  12  -7  -2    1.30    3.00
 -12   7   2    4.60    3.30
  11  -7  -2  266.47   12.60
  11  -7  -2  258.27   12.50
 -11   7   2  297.17   15.90
  10  -7  -2    6.80    3.40
  10  -7  -2    0.90    2.80
 -10   7   2    1.90    2.20
   9  -7  -2   73.79    6.90
   9  -7  -2   61.59    6.20
  -9   7   2   66.79    5.60
   8  -7  -2    1.60    2.50
   8  -7  -2    3.30    2.60
  -8   7   2    3.40    2.10
   7  -7  -2  133.89    7.80
   7  -7  -2  145.49    8.60
  -7   7   2  140.39    6.60
   6  -7  -2  480.25   14.70
   6  -7  -2  464.75   15.40
   6  -7  -2  451.35   11.70
  -6   7   2  467.25   15.70
   5  -7  -2  392.36   12.90
   5  -7  -2  390.66    9.80
   5  -7  -2  418.96   14.40
  -5   7   2  411.06   14.40
  -5   7   2  397.16    9.80
   4  -7  -2  451.35    9.80
   4  -7  -2  462.55   15.10
   4  -7  -2  445.16   13.70
  -4   7   2  466.85    9.80
  -4   7   2  477.05   15.40
   3  -7  -2   18.40    3.60
   3  -7  -2   23.10    3.70
  -3   7   2   21.70    1.80
  -3   7   2   16.40    1.80
  -3   7   2   18.60    3.70
   2  -7  -2  339.87   11.80
   2  -7  -2  353.76   12.70
  -2   7   2  337.87    7.10
  -2   7   2  355.86   12.90
  -2   7   2  345.37    7.20
   1  -7  -2  227.38    9.60
  -1   7   2  211.28    5.40
  -1   7   2  217.08   10.10
  -1   7   2  217.78    5.50
   0  -7  -2   58.99    5.10
   0   7   2   49.30    3.10
   0   7   2   43.80    5.20
   0   7   2   50.39    2.90
  -1  -7  -2  365.66    9.50
  -1  -7  -2  359.96   12.90
   1   7   2  370.06   13.60
   1   7   2  374.16    9.50
   1   7   2  377.06    9.70
  -2  -7  -2  383.56   13.80
  -2  -7  -2  383.26   10.70
   2   7   2  385.96   14.00
   2   7   2  363.96   10.30
  -3  -7  -2   74.09    6.20
  -3  -7  -2   56.89    4.40
   3   7   2   76.59    6.40
  -4  -7  -2  113.39    8.00
  -4  -7  -2  107.89    6.40
   4   7   2  100.39    7.50
   4   7   2  108.99    8.20
  -5  -7  -2  217.98   11.40
  -5  -7  -2  214.68    9.60
   5   7   2  232.08   11.60
   5   7   2  207.18   11.60
  -6  -7  -2  154.08   10.20
  -6  -7  -2  146.59    8.90
   6   7   2  158.28   10.80
   6   7   2  159.18    9.80
  -7  -7  -2  150.78   10.20
   7   7   2  162.28   11.00
   7   7   2  127.09    9.30
  -8  -7  -2   12.10    4.00
   8   7   2   21.80    4.90
   8   7   2   34.40    5.70
  11  -8  -2  124.39    9.50
 -11   8   2  177.18   11.70
  10  -8  -2  216.78   11.80
  10  -8  -2  217.28   11.00
 -10   8   2  208.38   10.00
   9  -8  -2   22.10    4.40
   9  -8  -2   17.80    4.40
  -9   8   2   14.40    2.90
   8  -8  -2   20.20    4.20
   7  -8  -2  869.01   24.30
   7  -8  -2  916.31   22.90
  -7   8   2  911.61   25.20
  -7   8   2  933.41   19.80
   6  -8  -2  125.59    8.60
   6  -8  -2  114.69    5.50
   6  -8  -2  131.69    7.70
  -6   8   2  122.29    8.60
   5  -8  -2   69.79    3.90
   5  -8  -2   65.69    5.50
   5  -8  -2   61.89    6.30
  -5   8   2   62.79    3.60
  -5   8   2   79.69    6.80
  -5   8   2   69.49    3.80
   4  -8  -2   26.00    4.50
   4  -8  -2   26.70    4.20
  -4   8   2   24.10    2.10
  -4   8   2   23.50    4.30
   3  -8  -2  552.54   17.50
   3  -8  -2  582.84   16.60
  -3   8   2  547.65   10.60
  -3   8   2  538.15   17.60
  -3   8   2  528.35   10.40
   2  -8  -2  980.50   23.60
   2  -8  -2 1005.60   25.20
  -2   8   2  977.50   16.80
  -2   8   2 1029.00   25.70
  -2   8   2  957.60   16.60
   1  -8  -2  154.28    8.60
  -1   8   2  146.49    6.50
  -1   8   2  146.79    4.60
  -1   8   2  147.49    8.90
   0  -8  -2  270.07   11.30
   0   8   2  266.67   12.10
   0   8   2  255.67    7.20
   0   8   2  270.47    7.50
  -1  -8  -2  907.91   18.40
  -1  -8  -2  909.91   23.60
   1   8   2  929.31   18.40
   1   8   2  888.31   24.00
   1   8   2  879.61   23.10
  -2  -8  -2  570.94   18.30
  -2  -8  -2  560.24   14.00
   2   8   2  583.14   18.60
  -3  -8  -2    9.10    3.70
  -3  -8  -2    4.70    2.10
   3   8   2    6.70    3.10
  -4  -8  -2   51.09    6.00
  -4  -8  -2   48.30    4.70
   4   8   2   55.19    6.50
   4   8   2   51.29    6.50
  -5  -8  -2  500.55   15.70
  -5  -8  -2  511.45   18.80
   5   8   2  510.05   19.60
   5   8   2  492.05   18.60
  -6  -8  -2  132.69    9.90
  -6  -8  -2  161.18    9.50
   6   8   2  150.08   10.80
   6   8   2  154.08   10.10
  -7  -8  -2    7.80    4.20
  -7  -8  -2   11.80    3.80
   7   8   2    4.50    3.60
   7   8   2    5.10    3.50
  10  -9  -2    3.60    3.30
  10  -9  -2   18.30    4.50
 -10   9   2    6.90    3.00
   9  -9  -2  395.16   14.90
   9  -9  -2  403.56   16.60
  -9   9   2  373.06   16.50
  -9   9   2  398.96   13.10
   8  -9  -2  446.06   15.50
   8  -9  -2  443.26   17.20
  -8   9   2  446.16   17.60
   7  -9  -2   14.50    3.70
   7  -9  -2   10.80    3.20
  -7   9   2   12.80    3.90
  -7   9   2    7.40    2.10
   6  -9  -2   -1.70    2.30
  -6   9   2   -0.20    1.50
  -6   9   2    0.40    2.40
   5  -9  -2  383.86   13.80
   5  -9  -2  391.56   15.40
  -5   9   2  391.76    9.40
  -5   9   2  380.96    9.20
  -5   9   2  393.76   15.90
   4  -9  -2  257.07   12.20
   4  -9  -2  258.47   11.00
  -4   9   2  225.18    6.10
  -4   9   2  240.28   12.00
   3  -9  -2  613.94   18.00
   3  -9  -2  621.34   19.70
  -3   9   2  593.34   19.60
  -3   9   2  571.14   11.10
  -3   9   2  587.44   11.20
   2  -9  -2   73.29    6.40
  -2   9   2  103.79    7.90
  -2   9   2   73.99    3.30
  -2   9   2   77.49    3.20
   1  -9  -2  238.18   10.90
  -1   9   2  238.18   11.80
  -1   9   2  221.78    6.20
   0  -9  -2  127.59    8.30
   0   9   2  124.09    5.10
   0   9   2  117.39    4.90
   0   9   2  120.99    8.70
  -1  -9  -2  185.58   10.10
   1   9   2  192.28   10.80
   1   9   2  166.98    6.60
  -2  -9  -2    6.30    3.10
  -2  -9  -2   10.80    2.30
   2   9   2   12.00    2.50
  -3  -9  -2  156.18    7.40
  -3  -9  -2  136.69    9.20
   3   9   2  155.58    9.80
   3   9   2  147.89   10.10
  -4  -9  -2  210.78    9.30
  -4  -9  -2  201.78   12.00
   4   9   2  222.18   12.20
   4   9   2  216.08   12.80
  -5  -9  -2   29.20    4.40
  -5  -9  -2   38.60    6.10
   5   9   2   31.10    5.80
   5   9   2   25.90    5.40
   6   9   2    0.50    2.50
   9 -10  -2  317.77   14.90
   9 -10  -2  320.67   15.20
  -9  10   2  336.97   16.30
  -9  10   2  323.07   11.40
   8 -10  -2  335.97   15.60
   8 -10  -2  325.17   13.40
  -8  10   2  320.57   15.60
  -8  10   2  321.57   12.00
   7 -10  -2    3.90    3.20
   7 -10  -2    3.90    2.60
  -7  10   2   -1.70    1.30
  -7  10   2    1.60    2.80
   6 -10  -2   26.30    5.00
   6 -10  -2   21.00    4.20
  -6  10   2   25.50    2.80
  -6  10   2   26.30    5.40
   5 -10  -2  384.26   14.40
   5 -10  -2  393.06   16.30
  -5  10   2  408.36   17.00
  -5  10   2  378.06    9.70
  -5  10   2  397.96    9.40
   4 -10  -2  548.25   17.60
   4 -10  -2  519.85   18.90
  -4  10   2  540.55   19.50
  -4  10   2  488.95   10.00
   3 -10  -2   30.50    4.80
  -3  10   2   28.00    2.00
  -3  10   2   32.30    5.40
  -3  10   2   32.00    2.10
   2 -10  -2  165.78    9.60
  -2  10   2  163.28   10.50
  -2  10   2  154.58    4.50
  -2  10   2  139.79    5.70
   1 -10  -2  298.37   15.00
  -1  10   2  304.27   10.40
  -1  10   2  310.07   14.40
  -1  10   2  295.17    7.50
   0 -10  -2  138.29    9.20
   0  10   2  152.18   10.00
   0  10   2  143.99    5.60
  -1 -10  -2   38.70    6.10
   1  10   2   36.50    5.90
   1  10   2   34.40    3.60
  -2 -10  -2   89.09    7.70
  -2 -10  -2   77.39    5.20
   2  10   2   85.89    5.40
   2  10   2   90.49    8.20
  -3 -10  -2  117.29    9.10
  -3 -10  -2  112.39    6.80
   3  10   2  121.79    9.90
   3  10   2  122.79    6.90
   3  10   2  116.69    9.50
  -4 -10  -2  199.98    9.60
  -4 -10  -2  193.58   11.70
   4  10   2  189.48   11.90
   4  10   2  194.68    9.40
   4  10   2  226.18   13.30
   8 -11  -2   14.90    4.80
   8 -11  -2   14.10    4.20
  -8  11   2   15.90    4.70
   7 -11  -2   93.89    8.90
   7 -11  -2   91.79    9.20
  -7  11   2   96.49    9.30
   6 -11  -2  228.48   12.80
  -6  11   2  198.08   12.60
   5 -11  -2   57.49    7.10
  -5  11   2   46.00    6.90
   4 -11  -2    0.40    3.50
   4 -11  -2    5.60    2.90
  -4  11   2    3.70    3.30
   3 -11  -2  276.77   12.80
  -3  11   2  330.17   15.40
   2 -11  -2  135.39    9.20
  -2  11   2  118.39    9.60
   1 -11  -2   42.20    6.00
  -1  11   2   48.50    7.40
   0 -11  -2   17.50    4.40
   0  11   2   23.00    4.80
  -1 -11  -2  168.78   10.70
   1  11   2  164.88    9.20
   1  11   2  175.38   11.80
  -2 -11  -2  133.99    9.70
   2  11   2  123.39   10.10
   2  11   2  118.69   10.20
  -3 -11  -2   -3.00    2.70
   3  11   2   -5.00    3.00
   6 -12  -2  140.89   13.30
   6 -12  -2  149.79    9.80
  -6  12   2  125.79   17.90
   5 -12  -2   24.20    4.70
   5 -12  -2   29.20    6.50
  -5  12   2   28.60    6.70
   4 -12  -2   17.40    4.50
  -4  12   2   21.40    5.20
   3 -12  -2  154.88   10.10
  -3  12   2  159.58   11.50
   2 -12  -2  253.17   12.70
  -2  12   2  231.18   13.60
   1 -12  -2   16.70    4.30
  -1  12   2    3.20    3.80
   0 -12  -2   32.40    5.50
   0  12   2   37.00    7.80
   1  13  -3  102.99    8.70
   1  13  -3   85.69    8.20
   1  13  -3   84.09    8.50
  -1 -13   3   99.99    8.00
   0  13  -3   35.90    5.20
   0  13  -3   21.10    4.90
   0  13  -3   40.20    6.40
   0 -13   3   44.70    5.90
  -1  13  -3  122.29    8.40
  -1  13  -3  126.39    8.50
  -1  13  -3  116.49   10.00
   1 -13   3  143.59   10.20
   1 -13   3  125.79    8.40
  -2  13  -3  230.58   10.60
  -2  13  -3  217.48   11.10
  -2  13  -3  241.88   13.50
   2 -13   3  224.28   10.30
   2 -13   3  233.08   12.90
  -3  13  -3  167.18   11.50
  -3  13  -3  150.08    8.50
  -3  13  -3  172.98    9.80
   3 -13   3  160.08   10.90
   3 -13   3  156.68    8.60
  -4  13  -3   -2.60    2.30
  -4  13  -3   -2.70    3.00
  -4  13  -3   -1.80    2.10
   4 -13   3    2.70    2.30
  -5  13  -3   66.59    7.00
  -5  13  -3   57.69    8.00
   5 -13   3   59.49    7.40
   5 -13   3   65.99    5.70
  -6  13  -3  124.49    8.70
   3  12  -3  329.67   14.40
   3  12  -3  337.57   15.50
   3  12  -3  354.76   14.70
  -3 -12   3  326.27   14.10
   2  12  -3  109.89    8.70
   2  12  -3  103.59    8.40
   1  12  -3   -1.50    2.90
   1  12  -3   -6.50    2.10
   0  12  -3  123.19    9.60
   0  12  -3  113.09    8.30
   0  12  -3  121.29    8.10
   0 -12   3  134.49    9.80
   0 -12   3  120.39    7.90
  -1  12  -3  562.34   17.50
  -1  12  -3  580.24   18.00
  -1  12  -3  563.34   20.30
   1 -12   3  582.14   20.20
   1 -12   3  581.24   17.20
  -2  12  -3  145.39   10.20
  -2  12  -3  137.79    8.10
  -2  12  -3  150.18    8.90
   2 -12   3  139.79    9.70
   2 -12   3  156.38    8.10
  -3  12  -3   74.99    6.00
  -3  12  -3   77.79    7.70
  -3  12  -3   97.19    7.40
   3 -12   3   89.59    7.90
   3 -12   3   95.69    6.20
  -4  12  -3  235.68   11.20
   4 -12   3  219.98   12.40
   4 -12   3  243.98   10.60
  -5  12  -3  202.68    8.10
  -5  12  -3  199.08   11.40
   5 -12   3  200.38   11.90
   5 -12   3  211.08    8.00
  -6  12  -3   97.59    6.90
  -6  12  -3  102.19    7.80
   6 -12   3   99.59    8.90
   6 -12   3   96.29    5.30
  -7  12  -3   54.39    6.70
   7 -12   3   65.19    7.90
  -8  12  -3  117.69    9.00
   8 -12   3  105.69    9.70
   5  11  -3   -6.70    2.70
   5  11  -3    1.10    2.90
   5  11  -3    2.40    2.90
  -5 -11   3    1.90    3.30
   4  11  -3  220.88   11.70
   4  11  -3  230.18   12.70
   4  11  -3  207.48   10.80
  -4 -11   3  238.68   11.90
   3  11  -3  202.28   10.40
   3  11  -3  163.38    9.80
   3  11  -3  204.88   11.50
  -3 -11   3  195.28   10.40
   2  11  -3   34.00    5.20
   2  11  -3   32.10    5.10
   2  11  -3   48.50    5.90
  -2 -11   3   40.60    5.60
   1  11  -3    4.10    2.60
   1  11  -3    3.60    2.60
   1  11  -3    6.30    3.00
  -1 -11   3    1.70    2.10
  -1 -11   3    4.50    2.90
   0  11  -3   91.79    7.70
   0  11  -3   83.39    6.70
   0  11  -3   85.99    7.00
   0 -11   3   88.89    7.30
   0 -11   3   85.19    6.50
  -1  11  -3  429.26   14.60
  -1  11  -3  429.76   16.60
  -1  11  -3  411.66   13.90
   1 -11   3  413.16   16.00
   1 -11   3  420.76   13.50
  -2  11  -3   14.50    2.90
  -2  11  -3   13.80    3.50
   2 -11   3   20.60    3.40
   2 -11   3   21.20    7.00
  -3  11  -3  189.18    8.30
  -3  11  -3  188.08    9.60
   3 -11   3  180.48    7.90
   3 -11   3  187.28   10.60
  -4  11  -3   65.69    4.80
  -4  11  -3   65.79    6.30
   4 -11   3   68.79    6.90
   4 -11   3   68.29    4.70
  -5  11  -3  175.48    9.50
   5 -11   3  183.88   11.00
   5 -11   3  189.68    6.90
  -6  11  -3   19.50    4.30
   6 -11   3   16.10    4.10
  -7  11  -3   28.60    5.00
   7 -11   3   38.20    6.00
   7 -11   3   37.10    3.00
  -8  11  -3  329.87   14.30
   8 -11   3  306.37   15.10
  -9  11  -3   95.59    8.20
   9 -11   3   87.79   14.00
   7  10  -3   -3.00    2.50
   6  10  -3  127.69   10.30
   6  10  -3  102.69    7.40
  -6 -10   3  109.79    9.10
   5  10  -3  457.55   15.50
   5  10  -3  483.75   17.80
   5  10  -3  459.55   18.20
  -5 -10   3  487.75   17.30
   4  10  -3  328.07   14.50
   4  10  -3  358.46   13.40
   4  10  -3  338.57   14.10
  -4 -10   3  351.26   14.10
   3  10  -3   14.80    3.90
   3  10  -3   15.20    4.00
   3  10  -3   18.40    3.90
  -3 -10   3   13.60    3.30
   2  10  -3  132.89    8.20
   2  10  -3  133.49    8.60
   2  10  -3  132.99    8.40
  -2 -10   3  128.69    8.10
  -2 -10   3  130.89    8.10
   1  10  -3  552.04   16.70
   1  10  -3  539.15   17.60
   1  10  -3  544.55   17.00
  -1 -10   3  554.14   16.50
  -1 -10   3  554.44   17.30
   0  10  -3  267.27   10.80
   0  10  -3  270.07   11.20
   0  10  -3  253.77   11.70
   0 -10   3  265.07   11.80
   0 -10   3  262.57   10.40
  -1  10  -3   40.10    5.60
  -1  10  -3   44.70    5.90
  -1  10  -3   40.30    5.00
   1 -10   3   44.90    4.50
   1 -10   3   50.99    5.70
  -2  10  -3  340.27   12.50
  -2  10  -3  323.87   11.00
   2 -10   3  336.87   13.70
   2 -10   3  343.27   10.80
  -3  10  -3 1415.26   27.40
  -3  10  -3 1452.25   30.70
   3 -10   3 1409.46   32.90
   3 -10   3 1396.46   26.80
  -4  10  -3  141.49    6.20
  -4  10  -3  151.98    8.50
   4 -10   3  161.98    7.30
   4 -10   3  176.18   10.10
  -5  10  -3    6.30    2.90
   5 -10   3    4.10    1.40
  -6  10  -3  570.44   17.70
  -6  10  -3  522.75   11.90
   6 -10   3  534.85   11.70
   6 -10   3  545.55   19.00
  -7  10  -3  678.73   20.10
   7 -10   3  627.44   12.80
   7 -10   3  673.53   21.90
   8 -10   3  280.87   14.00
  -9  10  -3   16.00    4.30
   9 -10   3   21.50    5.20
 -10  10  -3  267.27   13.40
  10 -10   3  255.87   16.10
   8   9  -3   -5.40    2.10
  -8  -9   3   -1.50    3.20
   7   9  -3   76.49    8.20
   7   9  -3   69.79    5.90
  -7  -9   3   76.19    7.60
   6   9  -3   54.59    5.40
   6   9  -3   49.90    6.80
  -6  -9   3   54.09    6.40
   5   9  -3  125.39    9.00
   5   9  -3  132.99    7.50
  -5  -9   3  124.99    8.50
   4   9  -3   16.00    3.70
   4   9  -3   19.10    3.50
   4   9  -3   12.80    3.60
  -4  -9   3   17.40    4.00
   3   9  -3    8.90    3.30
   3   9  -3   10.80    2.90
   3   9  -3    5.30    2.20
  -3  -9   3    8.70    3.00
   2   9  -3  736.43   19.60
   2   9  -3  714.03   19.80
   2   9  -3  720.73   19.40
  -2  -9   3  690.83   18.90
  -2  -9   3  713.93   19.20
   1   9  -3  195.08    9.20
   1   9  -3  195.38    9.10
   1   9  -3  182.88    9.20
  -1  -9   3  174.48    8.70
  -1  -9   3  194.78    9.20
  -1  -9   3  181.18    8.60
   0   9  -3    3.50    2.30
   0   9  -3    5.40    2.40
   0   9  -3    0.30    2.00
   0  -9   3    5.60    2.50
   0  -9   3    2.90    2.30
  -1   9  -3  297.27   11.10
  -1   9  -3  297.77   10.10
   1  -9   3  295.57    9.80
   1  -9   3  309.77   12.00
  -2   9  -3  374.56   10.90
  -2   9  -3  417.26   13.30
  -2   9  -3  395.76   11.30
   2  -9   3  392.86   14.10
   2  -9   3  395.26   11.00
  -3   9  -3  765.72   16.70
  -3   9  -3  726.23   16.30
  -3   9  -3  779.72   19.60
   3  -9   3  750.72   20.90
   3  -9   3  748.03   20.80
  -4   9  -3  208.38    9.50
  -4   9  -3  188.08    6.50
   4  -9   3  191.28    6.30
   4  -9   3  206.48   10.40
  -5   9  -3  391.06   13.50
  -5   9  -3  362.76    9.10
   5  -9   3  375.86    9.00
   5  -9   3  389.46   14.80
  -6   9  -3  703.33   13.60
  -6   9  -3  704.73   19.80
   6  -9   3  697.83   14.70
   6  -9   3  680.03   21.10
  -7   9  -3  305.67    7.30
  -7   9  -3  301.77   12.80
   7  -9   3  295.87   14.00
  -8   9  -3    4.30    1.50
  -8   9  -3    1.70    3.20
   8  -9   3    9.70    3.40
  -9   9  -3    0.40    2.70
   9  -9   3    8.80    3.70
 -10   9  -3  520.05   19.10
  10  -9   3  483.35   19.20
   9   8  -3    9.50    4.70
  -9  -8   3   14.70    4.50
   8   8  -3  233.08    9.50
   8   8  -3  233.38   13.30
  -8  -8   3  274.87   13.90
   7   8  -3  688.73   23.00
   7   8  -3  717.83   18.30
  -7  -8   3  715.43   22.40
   6   8  -3   57.29    6.50
  -6  -8   3   41.90    6.00
   5   8  -3   -2.20    2.30
   5   8  -3   -1.00    2.70
  -5  -8   3    1.80    2.30
   4   8  -3  195.48    8.80
   4   8  -3  196.58   10.30
  -4  -8   3  211.18   10.20
   3   8  -3  438.56   14.80
   3   8  -3  420.46   14.30
   3   8  -3  423.66   13.10
  -3  -8   3  437.36   14.30
   2   8  -3  951.80   22.50
   2   8  -3  955.70   22.70
   2   8  -3  976.40   23.00
  -2  -8   3  948.21   22.30
  -2  -8   3  938.81   22.20
  -2  -8   3  933.41   24.40
   1   8  -3   15.60    3.10
   1   8  -3   15.70    2.90
  -1  -8   3   13.50    2.90
  -1  -8   3   13.60    2.80
   0   8  -3 1179.18   26.40
   0   8  -3 1135.39   27.10
   0   8  -3 1188.18   24.30
   0  -8   3 1180.48   23.80
   0  -8   3 1163.18   25.70
  -1   8  -3 1482.95   27.80
  -1   8  -3 1499.65   30.10
  -1   8  -3 1506.05   28.50
   1  -8   3 1496.25   31.00
   1  -8   3 1519.75   27.80
  -2   8  -3  984.30   24.40
  -2   8  -3 1011.20   20.00
  -2   8  -3 1053.59   23.00
   2  -8   3 1033.30   23.90
   2  -8   3  992.30   19.60
  -3   8  -3   93.09    4.40
   3  -8   3  102.29    6.90
   3  -8   3   95.59    4.30
  -4   8  -3  253.47    6.90
  -4   8  -3  272.17   10.50
   4  -8   3  250.87   11.00
   4  -8   3  260.77    6.90
  -5   8  -3 1238.88   27.10
  -5   8  -3 1176.68   20.40
   5  -8   3 1196.28   28.20
  -6   8  -3  226.88   10.20
  -6   8  -3  218.28    5.70
   6  -8   3  227.68    6.30
   6  -8   3  226.48   11.10
  -7   8  -3    0.10    0.90
  -7   8  -3   -0.10    2.50
   7  -8   3   -0.20    2.40
  -8   8  -3  388.66   15.00
  -8   8  -3  373.66    8.60
   8  -8   3  414.96   19.00
   8  -8   3  372.26    8.50
  -9   8  -3  453.85   17.30
   9  -8   3  436.16   10.10
   9  -8   3  456.45   17.60
 -10   8  -3  134.99    9.50
  10  -8   3  123.69    5.70
  10  -8   3  163.98   10.60
 -11   8  -3   10.50    4.10
  11  -8   3    4.90    3.30
   9   7  -3   39.90    6.80
   9   7  -3   56.19    4.40
  -9  -7   3   35.60    6.40
   8   7  -3  165.78   10.80
   8   7  -3  179.28    7.60
  -8  -7   3  167.58   10.80
   7   7  -3  159.58   10.10
   7   7  -3  158.08    7.20
  -7  -7   3  155.38   11.70
   6   7  -3   41.60    4.00
   6   7  -3   39.20    5.90
  -6  -7   3   46.10    5.70
   5   7  -3  149.69    9.10
   5   7  -3  161.78    7.00
  -5  -7   3  145.09    8.60
   4   7  -3   12.60    2.50
   4   7  -3   11.00    2.90
  -4  -7   3   10.20    3.10
   3   7  -3  910.41   19.80
   3   7  -3  879.91   21.70
  -3  -7   3  901.11   21.60
   2   7  -3    5.90    2.10
   2   7  -3    5.70    2.10
  -2  -7   3    5.50    2.00
   1   7  -3    6.70    2.20
   1   7  -3    4.50    1.80
   1   7  -3    7.20    2.20
  -1  -7   3    6.00    2.10
  -1  -7   3    4.80    2.00
  -1  -7   3    9.10    2.30
   0   7  -3  296.87    9.10
   0   7  -3  318.87   10.40
   0  -7   3  291.07   10.10
  -1   7  -3  595.14   13.50
  -1   7  -3  597.64   15.40
  -1   7  -3  596.84   13.30
   1  -7   3  598.04   15.70
   1  -7   3  602.84   13.30
  -2   7  -3   38.80    2.70
  -2   7  -3   39.50    2.70
  -2   7  -3   34.70    3.80
   2  -7   3   39.70    4.70
   2  -7   3   39.20    2.70
  -3   7  -3    2.40    1.80
  -3   7  -3    4.30    1.20
   3  -7   3    6.30    2.30
   3  -7   3    6.10    1.90
  -4   7  -3   21.60    4.00
  -4   7  -3   19.20    1.80
   4  -7   3   19.30    3.50
   4  -7   3   19.60    1.70
  -5   7  -3  453.05   14.10
  -5   7  -3  429.66    8.40
   5  -7   3  428.66    8.40
   5  -7   3  436.46   14.60
  -6   7  -3  111.09    7.30
  -6   7  -3  111.29    3.60
   6  -7   3  113.69    7.70
   6  -7   3  109.29    3.50
  -7   7  -3  301.27    7.20
  -7   7  -3  316.27   12.70
   7  -7   3  313.37   12.90
  -8   7  -3  283.17   12.40
  -8   7  -3  267.17    7.30
   8  -7   3  269.57    7.30
   8  -7   3  279.57   12.90
   8  -7   3  270.17    7.10
  -9   7  -3  233.38    7.40
   9  -7   3  243.08    7.50
   9  -7   3  247.88   12.40
   9  -7   3  235.88    7.20
 -10   7  -3   16.10    4.20
  10  -7   3   23.40    4.70
 -11   7  -3    4.60    3.00
  11  -7   3   -5.70    2.50
  10   6  -3   81.69    8.20
 -10  -6   3  111.49    9.60
   9   6  -3  437.26   18.00
   9   6  -3  428.86   11.70
  -9  -6   3  439.56   17.40
   8   6  -3  440.46   17.40
   8   6  -3  423.26   11.60
   8   6  -3  420.46   13.50
  -8  -6   3  442.46   16.90
   7   6  -3   32.50    5.30
   7   6  -3   32.60    3.40
   7   6  -3   39.50    3.90
  -7  -6   3   38.70    5.60
   6   6  -3    8.50    2.00
   6   6  -3   11.60    3.00
  -6  -6   3   10.70    3.20
   5   6  -3 2213.18   39.70
   5   6  -3 2048.40   36.10
   5   6  -3 2162.48   42.10
  -5  -6   3 2103.39   41.20
   4   6  -3  830.92   20.80
   4   6  -3  800.92   17.20
   4   6  -3  826.02   17.20
  -4  -6   3  816.62   20.30
   3   6  -3   19.30    3.20
   3   6  -3   26.50    2.90
   3   6  -3   29.90    2.90
  -3  -6   3   19.30    3.50
   2   6  -3  301.97    9.00
   2   6  -3  325.07   11.10
   2   6  -3  311.37   10.50
   2   6  -3  309.07   10.20
  -2  -6   3  317.07   10.40
   1   6  -3  839.52   17.80
   1   6  -3  822.72   17.60
   1   6  -3  835.72   18.70
  -1  -6   3  830.92   18.60
   0   6  -3  773.72   15.80
   0   6  -3  783.22   17.60
   0   6  -3  769.72   16.00
   0   6  -3  756.02   17.40
   0   6  -3  766.42   17.10
   0  -6   3  775.12   17.20
   0  -6   3  768.02   15.70
  -1   6  -3   23.70    2.20
  -1   6  -3   18.80    2.90
  -1   6  -3   23.20    2.30
  -1   6  -3   11.30    2.30
  -1   6  -3   14.40    2.60
   1  -6   3   22.90    2.70
   1  -6   3   18.90    2.20
  -2   6  -3 1453.75   27.80
  -2   6  -3 1412.16   23.50
  -2   6  -3 1446.56   23.60
  -2   6  -3 1491.15   29.80
   2  -6   3 1399.56   27.60
   2  -6   3 1427.76   28.10
   2  -6   3 1445.66   23.50
  -3   6  -3  399.06    7.70
  -3   6  -3  402.86   12.00
   3  -6   3  395.56    7.60
   3  -6   3  396.86   12.20
  -4   6  -3  672.03   16.80
   4  -6   3  631.94   20.00
   4  -6   3  663.23   10.90
  -5   6  -3    3.90    2.70
   5  -6   3    1.90    0.70
   5  -6   3   -0.90    1.70
  -6   6  -3  552.54   10.30
  -6   6  -3  532.85   16.00
   6  -6   3  540.45   10.30
   6  -6   3  538.35   10.20
   6  -6   3  586.24   17.00
  -7   6  -3 1667.03   34.90
  -7   6  -3 1665.03   27.30
   7  -6   3 1667.53   35.40
   7  -6   3 1636.64   27.00
  -8   6  -3  892.21   17.40
  -8   6  -3  894.11   23.70
   8  -6   3  875.51   17.10
   8  -6   3  909.01   17.50
   8  -6   3  927.41   24.30
  -9   6  -3  101.49    8.10
   9  -6   3  106.09    8.00
   9  -6   3   93.69    5.60
 -10   6  -3  130.89    9.20
  10  -6   3  135.09    6.40
  10  -6   3  118.79    8.70
 -11   6  -3  414.96   17.20
  11  -6   3  339.27   15.60
  11  -6   3  395.26   16.40
 -12   6  -3   64.69    9.30
  12  -6   3   55.89    8.10
  12  -6   3   70.19    7.30
 -11  -5   3   -0.80    5.30
  10   5  -3   54.19    7.30
 -10  -5   3   55.99    6.70
   9   5  -3  126.49    9.20
  -9  -5   3  110.19    8.60
  -9  -5   3   94.19    7.10
   8   5  -3    6.00    2.80
   8   5  -3   10.30    2.00
  -8  -5   3    9.30    3.30
   7   5  -3    6.30    1.70
   7   5  -3    5.80    1.70
   7   5  -3    3.00    2.50
  -7  -5   3    0.80    2.20
   6   5  -3  292.67   12.10
   6   5  -3  272.67    7.90
   6   5  -3  279.67    8.10
  -6  -5   3  288.07   11.60
   5   5  -3  259.67    7.40
   5   5  -3  265.47    7.70
   5   5  -3  280.47   10.90
  -5  -5   3  257.37   10.40
   4   5  -3   61.89    5.80
   4   5  -3   52.79    3.20
   4   5  -3   61.59    3.50
   3   5  -3 2040.80   37.00
   3   5  -3 2003.60   33.50
   3   5  -3 2034.40   33.70
  -3  -5   3 2064.39   37.10
   2   5  -3  104.59    4.50
   2   5  -3  106.49    5.20
   2   5  -3  112.99    6.60
   2   5  -3  106.39    4.70
   2   5  -3  130.19    7.00
  -2  -5   3   98.39    4.50
  -2  -5   3   97.19    5.40
   1   5  -3  856.81   16.80
   1   5  -3  843.42   17.10
   1   5  -3  827.82   17.90
   1   5  -3  822.82   16.80
   1   5  -3  841.82   18.10
  -1  -5   3  846.72   16.90
  -1  -5   3  840.12   18.00
   0   5  -3  536.25   12.70
   0   5  -3  519.95   12.80
   0   5  -3  524.95   11.20
   0   5  -3  529.65   11.50
   0  -5   3  524.35   12.50
  -1   5  -3  923.81   18.70
  -1   5  -3  898.21   15.80
  -1   5  -3  906.11   15.90
  -1   5  -3  925.81   18.70
   1  -5   3  868.41   18.50
  -2   5  -3 2730.93   46.30
  -2   5  -3 2799.62   46.90
  -2   5  -3 2829.02   41.30
  -2   5  -3 2792.12   41.20
   2  -5   3 2771.32   41.10
   2  -5   3 2839.42   46.80
   2  -5   3 2721.13   45.90
  -3   5  -3  108.99    5.60
   3  -5   3  107.89    5.50
   3  -5   3  104.19    5.60
  -4   5  -3    2.00    1.70
   4  -5   3    3.50    1.80
  -5   5  -3   53.49    4.80
  -5   5  -3   43.40    2.10
   5  -5   3   39.40    5.50
   5  -5   3   44.80    2.00
   5  -5   3   44.60    2.10
  -6   5  -3 1422.66   29.70
  -6   5  -3 1408.06   23.10
   6  -5   3 1388.46   22.90
   6  -5   3 1406.96   23.20
   6  -5   3 1395.36   29.80
  -7   5  -3  447.96   15.00
  -7   5  -3  453.15   10.40
   7  -5   3  464.85   15.20
   7  -5   3  456.05   10.20
   7  -5   3  461.05   10.50
  -8   5  -3  237.68   11.20
   8  -5   3  233.18    8.10
   8  -5   3  234.18   11.00
   8  -5   3  230.78    7.60
  -9   5  -3    0.30    2.50
   9  -5   3    6.70    3.40
   9  -5   3    5.50    2.00
   9  -5   3    6.10    1.80
 -10   5  -3  168.08   10.60
  10  -5   3  188.78   13.20
  10  -5   3  169.58    7.60
 -11   5  -3  192.48   11.70
  11  -5   3  168.98    8.40
  11  -5   3  182.28   10.80
 -12   5  -3   10.50    4.40
  12  -5   3   15.90    3.90
  12  -5   3   16.00    4.60
  11   4  -3  280.17   15.00
 -11  -4   3  284.27   14.40
  10   4  -3  167.58    8.70
  10   4  -3  209.78   12.10
 -10  -4   3  189.38   11.70
   9   4  -3    1.10    1.30
   9   4  -3   -2.40    2.70
  -9  -4   3   -2.40    2.70
  -9  -4   3   -3.80    1.70
   8   4  -3  286.17   12.70
   8   4  -3  283.07    7.80
   8   4  -3  275.87    7.70
  -8  -4   3  288.07   12.50
  -8  -4   3  264.27    7.80
   7   4  -3  432.26    9.90
   7   4  -3  423.96   15.00
   7   4  -3  405.36    9.60
  -7  -4   3  407.26    9.70
  -7  -4   3  445.26   15.00
   6   4  -3  642.94   14.50
   6   4  -3  588.04   17.40
   6   4  -3  606.94   12.20
  -6  -4   3  600.74   17.20
  -6  -4   3  587.84   12.20
   5   4  -3   33.30    4.00
   5   4  -3   32.80    2.60
   5   4  -3   31.50    2.30
  -5  -4   3   34.60    4.10
   4   4  -3  230.48    6.00
   4   4  -3  248.68    6.30
   4   4  -3  240.08    9.10
  -4  -4   3  221.58    8.80
   3   4  -3 4840.52   76.19
   3   4  -3 4644.74   73.59
   3   4  -3 4598.04   69.39
   3   4  -3 4612.94   73.09
   3   4  -3 4743.93   69.39
  -3  -4   3 4646.73   73.69
  -3  -4   3 4612.64   73.49
   2   4  -3 3079.49   47.20
   2   4  -3 3144.09   46.80
   2   4  -3 2976.50   49.40
   2   4  -3 2988.90   49.10
   2   4  -3 3067.69   51.09
  -2  -4   3 2995.40   48.40
  -2  -4   3 3056.99   49.50
   1   4  -3  137.09    4.70
   1   4  -3  131.79    5.00
   1   4  -3  132.19    4.90
   1   4  -3  139.79    5.80
  -1  -4   3  137.49    4.80
  -1  -4   3  140.89    5.10
  -1  -4   3  128.59    5.50
   0   4  -3 2291.77   35.40
   0   4  -3 2247.08   35.50
   0   4  -3 2350.16   38.30
   0   4  -3 2238.88   36.80
   0   4  -3 2286.47   37.80
   0  -4   3 2276.97   37.90
   0  -4   3 2213.78   36.80
  -1   4  -3 3084.59   48.90
  -1   4  -3 3061.59   44.70
  -1   4  -3 3007.10   48.70
  -1   4  -3 2994.50   48.70
  -1   4  -3 3005.70   44.80
   1  -4   3 3002.40   48.50
   1  -4   3 3022.10   48.30
  -2   4  -3 2595.04   43.80
  -2   4  -3 2659.83   43.60
   2  -4   3 2597.54   43.60
   2  -4   3 2647.34   43.50
  -3   4  -3  177.58    7.00
  -3   4  -3  170.28    6.80
   3  -4   3  185.28    7.30
   3  -4   3  184.68    7.00
  -4   4  -3 2143.59   38.20
   4  -4   3 2146.59   38.30
   4  -4   3 2110.49   31.30
   4  -4   3 2137.09   31.30
  -5   4  -3 3635.54   60.39
   5  -4   3 3616.54   53.79
   5  -4   3 3640.34   53.59
   5  -4   3 3539.95   60.29
  -6   4  -3  778.72   19.60
   6  -4   3  768.92   19.40
   6  -4   3  759.52   14.40
   6  -4   3  763.82   14.90
  -7   4  -3   28.80    4.30
   7  -4   3   30.80    3.00
   7  -4   3   28.30    4.20
   7  -4   3   29.60    2.70
  -8   4  -3  450.25   15.60
   8  -4   3  455.05   11.60
   8  -4   3  474.45   14.10
   8  -4   3  436.66   15.10
  -9   4  -3   17.00    3.80
   9  -4   3   14.30    3.60
   9  -4   3   20.30    3.10
 -10   4  -3  480.45   17.90
  10  -4   3  498.85   17.90
  10  -4   3  498.15   14.70
 -11   4  -3    6.10    3.30
  11  -4   3   -0.70    2.20
  11  -4   3    2.50    2.80
 -12   4  -3  187.48   12.20
  12  -4   3  188.78   11.60
  12  -4   3  190.38   10.00
  12   3  -3   31.70    7.90
 -12  -3   3   34.00    7.20
  11   3  -3   15.40    4.60
 -11  -3   3   16.40    4.40
  10   3  -3    2.00    2.70
  10   3  -3    8.30    1.80
 -10  -3   3   10.70    3.60
   9   3  -3  341.27   14.30
   9   3  -3  315.27    8.30
  -9  -3   3  324.47   14.20
  -9  -3   3  306.37    8.50
   8   3  -3  218.78    6.30
   8   3  -3  209.98   10.50
  -8  -3   3  204.28    6.30
  -8  -3   3  226.28   10.80
   7   3  -3   83.89    6.40
   7   3  -3   88.79    5.40
  -7  -3   3   80.69    6.30
  -7  -3   3   77.19    3.50
   6   3  -3   78.09    3.00
   6   3  -3   73.99    5.60
   6   3  -3   75.09    3.00
  -6  -3   3   82.39    5.80
  -6  -3   3   71.39    3.00
   5   3  -3   21.00    1.50
   5   3  -3   20.20    1.50
   5   3  -3   14.50    2.80
  -5  -3   3   17.80    3.00
   4   3  -3  220.18    8.30
   4   3  -3  225.18    4.90
   4   3  -3  220.58    4.80
  -4  -3   3  220.28    8.30
  -4  -3   3  234.68    9.90
   3   3  -3 1550.84   28.30
   3   3  -3 1610.54   31.20
   3   3  -3 1551.04   24.10
   3   3  -3 1563.14   24.00
  -3  -3   3 1558.84   28.50
   2   3  -3  786.02   15.90
   2   3  -3  777.72   16.30
   2   3  -3  791.72   13.30
  -2  -3   3  788.82   13.40
  -2  -3   3  770.42   15.80
  -2  -3   3  788.12   16.30
   1   3  -3  470.65    9.30
   1   3  -3  468.45   11.10
   1   3  -3  479.35   11.10
  -1  -3   3  477.95    9.50
  -1  -3   3  478.55   11.10
  -1  -3   3  470.75   10.10
   0   3  -3  518.15    9.70
   0   3  -3  507.15   11.50
   0   3  -3  487.05   10.40
   0   3  -3  513.65   11.40
   0  -3   3  502.25    9.60
   0  -3   3  512.65   11.40
  -1   3  -3   58.09    1.80
  -1   3  -3   58.19    1.80
  -1   3  -3   55.89    3.30
  -1   3  -3   57.79    3.60
   1  -3   3   58.59    3.40
   1  -3   3   61.39    1.80
   1  -3   3   56.69    3.30
  -2   3  -3  474.15   11.50
  -2   3  -3  466.75   11.20
   2  -3   3  484.15   11.50
   2  -3   3  464.35   11.20
  -3   3  -3    3.10    1.50
   3  -3   3    4.70    0.50
   3  -3   3    1.70    1.30
   3  -3   3    6.40    0.70
  -4   3  -3 1766.22   32.90
  -4   3  -3 1826.62   33.20
   4  -3   3 1837.12   33.60
   4  -3   3 1827.32   28.00
   4  -3   3 1838.92   33.40
   4  -3   3 1822.32   28.10
  -5   3  -3  836.72   19.50
   5  -3   3  839.62   19.60
   5  -3   3  835.72   15.20
  -6   3  -3   27.40    3.80
   6  -3   3   31.90    2.80
   6  -3   3   32.00    2.70
   6  -3   3   26.50    4.60
  -7   3  -3   63.79    6.00
   7  -3   3   70.59    4.30
   7  -3   3   72.69    5.80
   7  -3   3   64.39    5.00
  -8   3  -3  218.18   10.50
   8  -3   3  197.68    7.80
   8  -3   3  198.28    9.90
  -9   3  -3   55.79    6.00
   9  -3   3   74.19    6.20
   9  -3   3   55.99    5.00
 -10   3  -3    9.60    3.50
  10  -3   3    8.80    2.80
  10  -3   3    3.00    2.80
 -11   3  -3  107.29    8.80
  11  -3   3  117.19    8.80
  11  -3   3  102.59    7.40
 -12   3  -3  144.69   10.90
  12  -3   3  150.28    9.10
  12  -3   3  165.18   10.60
  12   2  -3  151.28   11.10
 -12  -2   3  158.68   10.90
  11   2  -3   19.80    4.20
 -11  -2   3   21.90    4.70
  10   2  -3   16.10    4.30
  10   2  -3   14.00    2.20
 -10  -2   3   15.10    4.20
   9   2  -3  475.25   10.90
   9   2  -3  503.05   17.30
  -9  -2   3  471.85   11.10
  -9  -2   3  481.25   16.70
   8   2  -3 1421.86   24.40
   8   2  -3 1455.25   32.30
  -8  -2   3 1412.46   24.40
  -8  -2   3 1467.55   31.90
   7   2  -3   77.39    3.20
   7   2  -3   75.39    6.00
  -7  -2   3   80.89    6.20
  -7  -2   3   79.39    3.30
   6   2  -3  144.39    3.90
   6   2  -3  152.08    9.30
  -6  -2   3  146.39    4.00
  -6  -2   3  174.98    9.70
   5   2  -3  396.76    7.00
   5   2  -3  413.66   12.30
  -5  -2   3  388.66    7.40
  -5  -2   3  421.46   12.10
   4   2  -3 2311.47   39.80
   4   2  -3 2259.67   39.10
  -4  -2   3 2306.07   39.40
  -4  -2   3 2312.17   39.70
   3   2  -3 1617.64   30.40
   3   2  -3 1597.74   28.60
  -3  -2   3 1631.04   28.70
  -3  -2   3 1595.84   28.50
   2   2  -3 1747.83   25.90
   2   2  -3 1753.62   29.40
   2   2  -3 1799.82   29.70
  -2  -2   3 1706.23   29.40
  -2  -2   3 1757.22   25.90
  -2  -2   3 1722.33   29.30
   1   2  -3   13.60    1.40
   1   2  -3   13.50    1.70
   1   2  -3   11.80    1.70
   1   2  -3   12.10    1.80
  -1  -2   3   13.50    1.30
  -1  -2   3   10.90    1.70
  -1  -2   3   12.20    1.50
   0   2  -3  758.02   12.90
   0   2  -3  727.13   13.60
   0   2  -3  745.63   14.40
   0   2  -3  761.32   14.60
   0  -2   3  743.73   12.80
   0  -2   3  732.13   14.30
   0  -2   3  748.33   13.70
  -1   2  -3   10.20    1.10
  -1   2  -3    7.70    1.60
  -1   2  -3    7.30    1.40
   1  -2   3    5.50    1.30
   1  -2   3    7.20    1.40
   1  -2   3    9.00    1.00
  -2   2  -3  881.61   13.90
  -2   2  -3  913.91   17.50
  -2   2  -3  874.61   17.20
   2  -2   3  870.01   17.30
   2  -2   3  879.51   17.10
   2  -2   3  845.02   14.50
  -3   2  -3  466.35    8.70
  -3   2  -3  427.96   13.30
  -3   2  -3  459.45   11.70
   3  -2   3  475.65    8.90
   3  -2   3  472.45    8.70
   3  -2   3  460.65   11.70
   3  -2   3  437.66   13.20
  -4   2  -3 4516.65   71.09
  -4   2  -3 4346.06   70.79
   4  -2   3 4428.06   70.79
   4  -2   3 4491.45   66.79
   4  -2   3 4585.84   71.29
   4  -2   3 4547.65   67.29
  -5   2  -3   29.30    3.80
   5  -2   3   24.60    2.40
   5  -2   3   25.70    3.20
   5  -2   3   27.90    2.50
  -6   2  -3  516.95   15.10
   6  -2   3  491.75   16.80
   6  -2   3  509.25   12.40
  -7   2  -3 1545.25   32.20
   7  -2   3 1504.65   28.70
   7  -2   3 1485.15   28.20
   7  -2   3 1560.94   31.90
  -8   2  -3  133.69    8.30
   8  -2   3  132.29    6.90
   8  -2   3  129.69    7.80
  -9   2  -3   -1.30    2.20
   9  -2   3   -4.00    1.40
   9  -2   3   -1.00    2.20
 -10   2  -3  512.15   18.50
  10  -2   3  510.55   16.00
  10  -2   3  502.85   17.40
 -11   2  -3  327.77   15.30
  11  -2   3  335.07   13.40
  11  -2   3  316.07   14.10
 -12   2  -3  259.57   21.90
  12  -2   3  224.38   12.20
  12  -2   3  239.78   14.40
  12   1  -3   -0.80    2.40
 -12  -1   3   -0.80    2.60
  11   1  -3   71.49    5.60
  11   1  -3   63.19    7.00
 -11  -1   3   63.29    6.90
  10   1  -3  268.17    8.30
  10   1  -3  283.97   14.80
   9   1  -3   59.69    3.60
   9   1  -3   55.49    5.90
  -9  -1   3   64.69    6.30
  -9  -1   3   51.99    3.70
   8   1  -3   56.09    5.50
   8   1  -3   50.39    3.10
  -8  -1   3   60.89    5.90
  -8  -1   3   54.89    3.30
   7   1  -3   52.59    5.20
   7   1  -3   40.90    2.50
  -7  -1   3   54.79    4.90
  -7  -1   3   44.60    2.60
   6   1  -3  344.27    7.20
   6   1  -3  370.46   11.90
  -6  -1   3  350.56    7.30
  -6  -1   3  353.46   11.30
   5   1  -3  668.83   16.50
   5   1  -3  687.53   16.20
   5   1  -3  688.33   11.20
  -5  -1   3  693.63   16.20
   4   1  -3    6.90    1.60
  -4  -1   3    6.10    1.70
  -4  -1   3    6.70    1.80
   3   1  -3 1265.07   22.60
   3   1  -3 1252.87   23.20
  -3  -1   3 1277.07   22.70
  -3  -1   3 1227.48   22.90
   2   1  -3   36.20    2.90
   2   1  -3   37.90    1.40
   2   1  -3   33.80    2.40
  -2  -1   3   37.50    2.80
  -2  -1   3   35.70    1.40
  -2  -1   3   33.70    2.70
   1   1  -3   35.00    2.40
   1   1  -3   32.50    1.80
   1   1  -3   35.90    2.60
   1   1  -3   34.60    2.30
  -1  -1   3   32.50    1.90
  -1  -1   3   34.80    2.40
  -1  -1   3   33.90    2.50
   0   1  -3  690.53   12.90
   0   1  -3  697.53   13.10
   0   1  -3  672.03   12.70
   0   1  -3  681.23   12.30
   0  -1   3  672.13   12.90
   0  -1   3  694.53   12.40
   0  -1   3  693.43   12.90
  -1   1  -3   30.70    2.50
  -1   1  -3   34.00    2.00
  -1   1  -3   34.20    2.70
   1  -1   3   33.40    2.50
   1  -1   3   34.10    2.60
   1  -1   3   34.40    2.00
  -2   1  -3 2798.32   42.60
  -2   1  -3 2842.02   44.90
  -2   1  -3 2856.11   45.20
   2  -1   3 2808.82   44.70
   2  -1   3 2811.02   45.20
   2  -1   3 2794.62   42.60
  -3   1  -3 1254.67   26.70
  -3   1  -3 1286.97   23.90
  -3   1  -3 1302.47   23.20
   3  -1   3 1300.97   26.00
   3  -1   3 1279.67   24.20
   3  -1   3 1278.17   21.70
  -4   1  -3  108.29    4.50
  -4   1  -3  108.59    5.60
  -4   1  -3  112.49    5.60
   4  -1   3  102.39    5.50
   4  -1   3  112.59    4.60
   4  -1   3  108.39    5.50
   4  -1   3  110.09    4.50
  -5   1  -3    2.10    1.60
   5  -1   3    2.40    1.30
   5  -1   3    5.80    2.00
   5  -1   3    6.10    1.60
  -6   1  -3  938.31   21.60
   6  -1   3  888.81   18.80
   6  -1   3  910.41   19.30
   6  -1   3  840.42   23.40
  -7   1  -3  459.95   15.10
   7  -1   3  476.95   13.40
   7  -1   3  467.45   14.80
  -8   1  -3   29.70    4.80
   8  -1   3   21.60    3.80
   8  -1   3   26.80    3.90
  -9   1  -3   31.60    5.30
   9  -1   3   36.10    5.20
   9  -1   3   32.10    4.50
 -10   1  -3  177.78   10.80
  10  -1   3  168.58    9.30
  10  -1   3  167.78    9.70
 -11   1  -3  258.37   13.40
  11  -1   3  244.58   12.50
  11  -1   3  246.58   11.90
  12  -1   3    1.20    3.40
  12  -1   3   -1.30    3.10
  12   0  -3   -6.60    2.40
  12   0  -3    2.20    1.70
 -12   0   3    9.50    3.80
  11   0  -3  570.34   19.90
  11   0  -3  544.15   13.50
 -11   0   3  544.95   19.50
  10   0  -3  228.18   11.60
 -10   0   3  220.78   11.40
 -10   0   3  212.08    7.70
   9   0  -3  159.58    6.00
   9   0  -3  140.89    8.80
  -9   0   3  153.28    8.70
  -9   0   3  147.19    8.80
   8   0  -3  440.96   14.70
   8   0  -3  418.16   10.10
  -8   0   3  428.76   14.20
  -8   0   3  418.16   10.20
   7   0  -3  691.53   13.50
   7   0  -3  681.43   18.20
  -7   0   3  673.23   13.50
  -7   0   3  700.73   18.00
   6   0  -3 2004.00   37.30
   6   0  -3 2001.90   31.70
  -6   0   3 1965.60   31.70
  -6   0   3 2042.30   36.60
   5   0  -3   14.50    2.40
   5   0  -3   17.50    1.50
   5   0  -3   14.90    2.60
  -5   0   3   13.80    2.50
  -5   0   3   16.30    1.50
  -5   0   3   14.40    2.50
   4   0  -3 2082.49   31.30
   4   0  -3 2038.70   34.50
  -4   0   3 2088.19   31.40
  -4   0   3 2047.80   31.20
  -4   0   3 2108.79   35.90
  -4   0   3 2016.30   34.60
   3   0  -3 3417.66   52.69
   3   0  -3 3415.46   54.19
  -3   0   3 3360.36   52.69
  -3   0   3 3428.36   54.19
  -3   0   3 3469.85   50.39
  -3   0   3 3466.85   50.29
   2   0  -3   22.50    2.40
   2   0  -3   25.30    2.00
   2   0  -3   20.10    1.60
  -2   0   3   19.80    1.60
  -2   0   3   19.60    1.50
  -2   0   3   20.60    1.90
  -2   0   3   21.80    2.30
   0   0  -3 2522.25   39.90
   0   0  -3 2568.64   39.80
   0   0  -3 2618.04   39.00
   0   0   3 2577.34   41.80
   0   0   3 2540.45   38.90
   0   0   3 2531.75   39.70
  -2   0  -3 2994.40   46.00
  -2   0  -3 2892.31   47.30
  -2   0  -3 2941.91   46.60
   2   0   3 3037.80   47.80
   2   0   3 2959.50   46.00
   2   0   3 2941.21   46.50
  -3   0  -3  112.89    5.10
  -3   0  -3  106.99    4.60
  -3   0  -3  113.59    5.30
   3   0   3  116.09    4.70
   3   0   3  112.89    5.20
  -4   0  -3 1442.06   27.90
  -4   0  -3 1489.45   27.80
  -4   0  -3 1470.85   26.40
   4   0   3 1502.75   28.40
   4   0   3 1481.45   27.90
   4   0   3 1476.35   26.80
   4   0   3 1432.26   27.50
  -5   0  -3  303.67   10.20
  -5   0  -3  299.97    9.30
   5   0   3  287.67    9.40
   5   0   3  306.07    9.30
   5   0   3  292.57   10.20
  -6   0  -3 1827.02   35.90
   6   0   3 1876.21   34.70
  -7   0  -3   49.30    5.10
   7   0   3   52.39    5.10
   7   0   3   41.20    7.00
  -8   0  -3   72.89    6.40
   8   0   3   64.49    6.20
   8   0   3   68.09    5.70
  -9   0  -3  544.35   25.40
   9   0   3  581.84   17.90
   9   0   3  578.94   18.20
 -10   0  -3  381.76   15.90
  10   0   3  380.36   15.20
  10   0   3  366.76   14.50
 -11   0  -3   -2.70    3.10
  11   0   3    5.40    3.20
  11   0   3    4.40    3.10
  13  -1  -3  121.89    9.90
 -13   1   3  128.99   11.50
  12  -1  -3   53.09    7.50
 -12   1   3   64.69    7.70
  11  -1  -3  180.48    7.50
  11  -1  -3  177.08   10.90
 -11   1   3  177.48   10.60
  10  -1  -3   68.59    6.60
  10  -1  -3   51.89    4.00
 -10   1   3   50.89    6.60
 -10   1   3   57.69    6.20
   9  -1  -3  301.97   12.60
  -9   1   3  291.57    9.20
  -9   1   3  310.87   12.30
   8  -1  -3  433.56   11.00
   8  -1  -3  455.05   14.80
  -8   1   3  447.36   12.20
  -8   1   3  443.86   14.10
   7  -1  -3  215.78    6.80
   7  -1  -3  217.98    9.40
  -7   1   3  212.48    6.80
  -7   1   3  223.48    9.10
   6  -1  -3   19.80    2.20
   6  -1  -3   21.50    3.40
  -6   1   3   15.20    2.60
  -6   1   3   16.70    2.00
   5  -1  -3  677.63   15.00
   5  -1  -3  686.33   16.30
  -5   1   3  680.13   16.80
  -5   1   3  662.93   15.90
  -5   1   3  657.13   13.00
   4  -1  -3 4175.98   62.89
   4  -1  -3 4171.48   64.29
  -4   1   3 4105.69   64.19
  -4   1   3 4255.37   63.09
  -4   1   3 4315.07   62.99
  -4   1   3 4178.38   66.19
   3  -1  -3    4.60    1.10
   3  -1  -3    2.40    1.10
   3  -1  -3    5.90    1.70
  -3   1   3    2.50    1.30
  -3   1   3    3.30    1.00
   2  -1  -3    0.80    1.20
   2  -1  -3    4.10    1.10
   2  -1  -3    1.30    0.70
  -2   1   3    2.80    0.90
  -2   1   3    2.10    0.80
  -2   1   3    1.30    1.00
  -2   1   3    0.80    1.10
   1  -1  -3 1995.00   32.30
   1  -1  -3 2029.90   30.20
   1  -1  -3 2002.60   30.20
   1  -1  -3 2006.30   33.00
  -1   1   3 2012.80   32.80
  -1   1   3 1981.10   32.80
   0  -1  -3 1453.95   24.90
   0  -1  -3 1436.86   22.70
   0  -1  -3 1436.96   24.90
   0   1   3 1413.96   24.70
   0   1   3 1461.35   22.60
   0   1   3 1472.65   25.10
  -1  -1  -3 1998.70   32.80
  -1  -1  -3 1939.81   33.20
  -1  -1  -3 2007.80   31.40
   1   1   3 2007.00   33.50
   1   1   3 1975.00   32.70
   1   1   3 1949.70   31.20
  -2  -1  -3  111.39    4.80
  -2  -1  -3  102.99    4.30
   2   1   3  105.99    4.70
   2   1   3  105.29    5.10
   2   1   3  100.29    4.40
  -3  -1  -3  507.55   12.30
  -3  -1  -3  498.65   12.80
  -3  -1  -3  515.45   12.10
   3   1   3  483.45   14.10
   3   1   3  521.65   13.80
   3   1   3  486.15   12.80
  -4  -1  -3   29.10    3.30
  -4  -1  -3   32.00    3.20
   4   1   3   32.70    3.20
   4   1   3   37.60    3.80
   4   1   3   32.50    3.10
   4   1   3   31.50    3.20
  -5  -1  -3  514.25   14.30
  -5  -1  -3  496.95   13.60
   5   1   3  536.95   14.30
   5   1   3  513.05   14.50
  -6  -1  -3    3.40    2.30
   6   1   3    8.00    2.70
  -7  -1  -3  134.29    8.10
   7   1   3  144.19    8.00
   7   1   3  139.89    7.90
  -8  -1  -3   45.70    5.60
   8   1   3   45.00    5.40
   8   1   3   57.99    5.80
  -9  -1  -3   28.60    6.10
   9   1   3   26.00    4.70
   9   1   3   23.00    4.50
 -10  -1  -3   81.69    7.90
  10   1   3   57.39    9.90
 -11  -1  -3  112.09    9.60
  11   1   3  128.39    9.30
  11   1   3  134.59    9.60
 -13   2   3  151.98   10.90
  12  -2  -3  309.97   14.80
  12  -2  -3  320.67   11.10
 -12   2   3  325.27   15.10
 -11   2   3   12.10    3.80
  10  -2  -3    1.00    1.70
  10  -2  -3    0.60    2.50
 -10   2   3    1.30    2.50
   9  -2  -3  760.82   17.30
   9  -2  -3  747.13   20.90
  -9   2   3  765.52   20.40
   8  -2  -3  580.94   14.40
   8  -2  -3  626.14   17.60
  -8   2   3  582.64   16.40
  -8   2   3  576.64   14.10
   7  -2  -3 1090.59   24.90
   7  -2  -3 1074.19   20.90
  -7   2   3 1077.79   23.00
  -7   2   3 1044.90   23.10
   6  -2  -3  467.95   11.30
   6  -2  -3  476.65   13.60
   6  -2  -3  431.26   12.00
  -6   2   3  475.25   11.30
  -6   2   3  470.85   12.40
   5  -2  -3  577.94   14.60
   5  -2  -3  572.84   12.60
   5  -2  -3  547.95   12.70
  -5   2   3  529.15   12.60
  -5   2   3  589.74   16.60
  -5   2   3  560.44   12.50
   4  -2  -3 4213.28   63.69
   4  -2  -3 4057.69   62.79
  -4   2   3 4127.69   65.69
  -4   2   3 4116.29   62.89
  -4   2   3 4209.48   63.59
  -4   2   3 4147.79   63.79
   3  -2  -3  113.29    4.60
   3  -2  -3  119.59    5.40
   3  -2  -3  108.79    3.70
  -3   2   3  121.79    4.80
  -3   2   3  114.09    4.60
  -3   2   3  110.09    3.70
   2  -2  -3   61.59    3.40
   2  -2  -3   67.79    4.00
  -2   2   3   61.19    3.50
  -2   2   3   62.29    3.70
  -2   2   3   59.29    2.00
  -2   2   3   63.09    3.40
   1  -2  -3  519.25    8.10
   1  -2  -3  515.65    8.20
   1  -2  -3  521.95   12.10
   1  -2  -3  500.45   11.70
  -1   2   3  520.95   12.10
  -1   2   3  528.05   11.80
  -1   2   3  524.75   12.00
   0  -2  -3  614.34   10.20
   0  -2  -3  583.74   13.30
   0  -2  -3  591.54   13.30
   0   2   3  600.64   13.30
   0   2   3  602.14   13.50
   0   2   3  581.34   10.20
  -1  -2  -3   12.30    1.70
  -1  -2  -3   10.80    2.00
  -1  -2  -3   14.20    2.60
   1   2   3   13.90    1.70
   1   2   3   14.30    2.40
  -2  -2  -3  269.17    7.40
  -2  -2  -3  275.47    8.80
   2   2   3  267.27    8.50
   2   2   3  266.17    7.40
   2   2   3  273.17    9.00
  -3  -2  -3 2116.39   37.50
  -3  -2  -3 2194.58   36.40
   3   2   3 2096.59   37.50
   3   2   3 2161.88   38.30
  -4  -2  -3  669.93   16.00
  -4  -2  -3  681.13   16.60
   4   2   3  690.73   17.30
   4   2   3  706.03   18.10
  -5  -2  -3   43.10    7.50
  -5  -2  -3   46.50    4.30
  -6  -2  -3  564.64   16.30
  -6  -2  -3  540.15   15.90
   6   2   3  564.44   16.50
   6   2   3  565.34   16.70
  -7  -2  -3  528.55   16.30
  -7  -2  -3  515.35   16.40
   7   2   3  545.25   16.90
   7   2   3  539.55   17.00
  -8  -2  -3  261.77   12.00
   8   2   3  252.57   11.50
   8   2   3  265.37   11.90
  -9  -2  -3    4.40    3.20
   9   2   3    1.40    2.60
   9   2   3    5.10    3.70
 -10  -2  -3  245.28   13.10
  10   2   3  268.57   12.80
  10   2   3  257.67   13.20
 -11  -2  -3  194.78   12.20
  11   2   3  173.98   11.60
  11   2   3  191.98   11.30
  13  -3  -3   21.20    5.30
  13  -3  -3   18.00    3.70
 -13   3   3   24.40    4.90
  12  -3  -3   -3.60    1.90
  12  -3  -3   -6.80    2.60
 -12   3   3    1.10    2.60
  11  -3  -3   51.09    7.20
  11  -3  -3   60.19    5.10
  10  -3  -3   19.80    3.90
  10  -3  -3   20.70    4.60
 -10   3   3   22.50    4.40
   9  -3  -3  478.05   13.50
   9  -3  -3  480.25   16.00
  -9   3   3  489.25   15.30
   8  -3  -3   71.59    5.90
   8  -3  -3   76.99    5.10
  -8   3   3   82.99    5.80
   7  -3  -3  251.97    8.70
   7  -3  -3  249.08   10.20
  -7   3   3  252.77    8.60
  -7   3   3  261.37    9.40
   6  -3  -3  142.29    7.10
   6  -3  -3  155.28    6.70
   6  -3  -3  142.49    6.20
  -6   3   3  154.08    6.60
  -6   3   3  138.29    6.10
   5  -3  -3  317.47   10.50
   5  -3  -3  312.87    8.60
  -5   3   3  316.17    9.30
  -5   3   3  333.37    8.80
   4  -3  -3   38.40    3.60
   4  -3  -3   32.20    2.40
   4  -3  -3   33.80    3.00
  -4   3   3   35.50    3.20
  -4   3   3   33.20    3.20
  -4   3   3   33.20    3.70
   3  -3  -3    4.50    1.60
   3  -3  -3    3.40    0.90
   3  -3  -3    2.90    1.70
  -3   3   3    0.90    1.30
  -3   3   3    3.10    1.30
  -3   3   3    3.30    0.90
   2  -3  -3 1767.72   33.60
  -2   3   3 1651.13   33.20
  -2   3   3 1759.32   30.90
  -2   3   3 1764.12   31.00
   1  -3  -3   33.70    3.00
  -1   3   3   35.10    3.80
  -1   3   3   30.80    2.90
  -1   3   3   30.30    3.00
   0  -3  -3   17.30    3.10
   0  -3  -3   17.30    2.50
   0  -3  -3   14.80    1.20
   0   3   3   14.90    3.00
   0   3   3   14.60    2.30
   0   3   3   17.90    2.70
  -1  -3  -3  359.86   10.50
  -1  -3  -3  367.76    8.00
  -1  -3  -3  339.47   10.40
   1   3   3  357.36   10.40
   1   3   3  362.66   10.70
   1   3   3  357.06    7.90
  -2  -3  -3 2218.38   36.10
  -2  -3  -3 2224.98   39.10
   2   3   3 2238.38   39.60
   2   3   3 2189.58   36.00
  -3  -3  -3   47.20    4.10
  -3  -3  -3   47.50    4.30
   3   3   3   54.39    4.60
   3   3   3   51.39    3.70
  -4  -3  -3   26.40    3.90
  -4  -3  -3   18.40    2.90
  -5  -3  -3  512.75   15.30
   5   3   3  523.35   15.70
   5   3   3  507.55   15.70
  -6  -3  -3   71.69    6.00
  -6  -3  -3   72.29    5.80
   6   3   3   61.29    5.80
   6   3   3   60.49    5.90
  -7  -3  -3  149.09    8.90
  -7  -3  -3  153.38    9.10
   7   3   3  149.59    8.60
   7   3   3  142.79    8.90
  -8  -3  -3   -1.00    2.90
   8   3   3    7.00    3.00
   8   3   3    5.30    3.00
  -9  -3  -3   34.90    5.80
   9   3   3   20.90    5.20
   9   3   3   28.00    5.10
 -10  -3  -3  214.28   12.40
  10   3   3  214.88   11.80
  10   3   3  176.88   11.60
  12  -4  -3   20.70    4.90
  12  -4  -3   27.80    4.30
 -12   4   3   34.90    5.30
  11  -4  -3  118.29    7.30
  11  -4  -3  136.69   11.00
 -11   4   3  128.99   10.30
  10  -4  -3  558.44   18.30
  10  -4  -3  557.14   16.10
 -10   4   3  574.74   17.70
   9  -4  -3   60.89    5.00
   9  -4  -3   64.29    6.30
  -9   4   3   50.89    5.40
   8  -4  -3   45.90    5.10
   8  -4  -3   44.80    4.70
  -8   4   3   34.00    4.90
   7  -4  -3  951.80   21.20
   7  -4  -3  930.11   22.50
  -7   4   3  945.11   20.50
   6  -4  -3  215.98    8.40
   6  -4  -3  206.18    7.40
   6  -4  -3  205.68    9.10
   5  -4  -3  823.12   16.50
   5  -4  -3  865.01   19.90
   5  -4  -3  859.41   19.20
  -5   4   3  849.72   19.30
  -5   4   3  831.52   16.40
   4  -4  -3  167.08    7.40
   4  -4  -3  158.58    4.80
   4  -4  -3  157.88    6.90
  -4   4   3  154.18    4.70
  -4   4   3  159.88    6.90
  -4   4   3  165.98    7.10
   3  -4  -3 1126.99   22.90
   3  -4  -3 1136.29   23.30
  -3   4   3 1120.49   22.70
  -3   4   3 1149.19   23.20
  -3   4   3 1084.49   17.20
   2  -4  -3 1438.56   27.70
  -2   4   3 1461.25   30.10
  -2   4   3 1417.36   27.60
  -2   4   3 1435.36   27.80
   1  -4  -3   66.69    4.50
  -1   4   3   58.59    4.30
   0  -4  -3  671.93   16.20
   0  -4  -3  648.74   11.00
   0   4   3  650.53   16.30
   0   4   3  677.43   11.80
  -1  -4  -3 1894.91   30.70
  -1  -4  -3 1899.21   35.30
   1   4   3 1953.80   36.00
   1   4   3 1921.21   30.60
  -2  -4  -3 4223.48   68.99
  -2  -4  -3 4163.48   64.69
   2   4   3 4281.47   69.49
   2   4   3 4213.68   64.79
  -3  -4  -3   69.09    5.50
   3   4   3   86.59    6.10
   3   4   3   73.39    4.60
  -4  -4  -3  173.18    7.50
  -4  -4  -3  180.68    8.70
   4   4   3  177.18    8.80
  -5  -4  -3  736.03   20.20
  -5  -4  -3  715.23   18.40
   5   4   3  744.53   20.10
   5   4   3  757.22   20.90
  -6  -4  -3  519.25   17.20
  -6  -4  -3  539.65   16.30
   6   4   3  552.44   18.20
   6   4   3  565.84   17.50
  -7  -4  -3   29.10    4.80
  -7  -4  -3   33.80    5.30
   7   4   3   28.70    4.80
   7   4   3   20.70    4.20
  -8  -4  -3   42.20    9.10
   8   4   3   37.90    5.90
   8   4   3   40.80    6.00
  -9  -4  -3  396.36   16.30
   9   4   3  359.76   15.20
   9   4   3  378.46   16.70
 -10  -4  -3   68.59    7.30
  10   4   3   68.39    7.60
  10   4   3   46.20    6.50
  12  -5  -3  282.47   13.90
  12  -5  -3  271.07   11.90
 -12   5   3  332.87   14.50
  11  -5  -3   50.19    5.30
 -11   5   3   39.40    5.40
  10  -5  -3    0.10    3.00
  10  -5  -3    4.30    2.30
 -10   5   3    0.00    2.00
   9  -5  -3  321.17   12.00
   9  -5  -3  312.47   12.80
  -9   5   3  315.77   11.80
   8  -5  -3 1480.85   31.80
   8  -5  -3 1470.95   30.80
  -8   5   3 1448.85   32.50
   7  -5  -3   14.40    3.40
   7  -5  -3    9.20    2.40
  -7   5   3    8.80    2.30
   6  -5  -3    3.00    2.00
  -6   5   3    3.30    1.60
  -6   5   3   10.80    3.20
   5  -5  -3 1064.59   23.60
   5  -5  -3 1049.40   19.40
   5  -5  -3 1047.80   23.90
  -5   5   3 1061.29   19.30
  -5   5   3 1103.99   24.50
   4  -5  -3  423.86   12.80
   4  -5  -3  431.06   12.90
   4  -5  -3  418.26    8.50
  -4   5   3  415.66    8.40
  -4   5   3  409.86   12.80
   3  -5  -3  298.27   10.50
   3  -5  -3  303.17   10.60
  -3   5   3  327.47   11.00
   2  -5  -3   60.19    4.70
  -2   5   3   70.89    5.10
   1  -5  -3  235.68    9.10
  -1   5   3  232.28    9.40
   0  -5  -3 2172.68   32.70
   0  -5  -3 2127.29   40.10
   0   5   3 2228.98   44.40
   0   5   3 2127.49   32.60
  -1  -5  -3  985.00   22.40
  -1  -5  -3  914.51   18.10
   1   5   3  995.30   22.90
   1   5   3 1013.60   17.60
  -2  -5  -3    0.40    1.20
  -2  -5  -3   -2.40    1.40
   2   5   3    4.10    2.00
   2   5   3   -0.50    1.30
  -3  -5  -3   15.30    3.50
  -3  -5  -3   12.80    2.40
   3   5   3   10.80    2.30
   3   5   3   15.00    3.70
  -4  -5  -3  330.27   12.70
  -4  -5  -3  326.67   10.80
   4   5   3  334.57   12.90
  -5  -5  -3   32.40    4.50
  -5  -5  -3   28.10    4.70
   5   5   3   30.00    5.00
   5   5   3   23.50    4.30
  -6  -5  -3  145.69    8.40
  -6  -5  -3  131.69    8.80
   6   5   3  154.48   10.10
   6   5   3  135.09    8.80
  -7  -5  -3  167.58    9.80
  -7  -5  -3  185.98   10.70
   7   5   3  183.78   11.30
   7   5   3  180.78   10.30
  -8  -5  -3  134.59    9.40
   8   5   3  127.09    9.30
   8   5   3  117.99    9.50
  -9  -5  -3  108.89    9.10
   9   5   3  116.09    9.50
   9   5   3  101.39    8.60
  12  -6  -3   78.89    7.30
  12  -6  -3   87.09    8.30
 -12   6   3   85.59    7.50
  11  -6  -3  201.48   13.50
  11  -6  -3  192.78   10.90
 -11   6   3  194.38   10.30
  10  -6  -3   78.39    6.70
  10  -6  -3   97.19    7.80
 -10   6   3   83.99    6.60
   9  -6  -3  367.56   13.60
   9  -6  -3  345.57   13.70
  -9   6   3  374.16   12.70
   8  -6  -3  900.11   23.00
   8  -6  -3  930.11   23.70
  -8   6   3  938.91   20.90
   7  -6  -3  322.47   12.40
   7  -6  -3  311.37   10.10
   7  -6  -3  322.27   12.50
  -7   6   3  334.17   12.60
  -7   6   3  329.37   10.00
   6  -6  -3  100.79    6.90
   6  -6  -3  110.59    7.10
   6  -6  -3  103.09    5.10
  -6   6   3  114.09    7.20
  -6   6   3  110.59    5.10
   5  -6  -3  947.21   22.30
   5  -6  -3  892.01   16.80
   5  -6  -3  917.11   22.40
  -5   6   3  919.41   17.70
  -5   6   3  927.91   22.80
   4  -6  -3  719.43   12.60
   4  -6  -3  743.43   18.80
   4  -6  -3  746.93   19.30
  -4   6   3  727.03   12.50
  -4   6   3  734.43   12.50
  -4   6   3  740.33   19.50
   3  -6  -3   26.70    3.80
   3  -6  -3   33.20    4.40
  -3   6   3   37.90    4.40
   2  -6  -3  106.39    6.60
  -2   6   3  113.19    7.00
   1  -6  -3 1204.78   26.40
  -1   6   3 1242.18   27.40
   0  -6  -3  789.32   13.50
   0  -6  -3  759.82   19.60
   0   6   3  777.52   13.50
   0   6   3  799.12   13.50
   0   6   3  771.02   20.30
  -1  -6  -3  279.07    7.30
  -1  -6  -3  279.27   11.00
   1   6   3  284.37   11.50
   1   6   3  270.17    7.20
  -2  -6  -3  240.48    7.60
  -2  -6  -3  247.78   10.70
   2   6   3  245.38   10.90
  -3  -6  -3   46.40    4.00
  -3  -6  -3   49.90    5.30
   3   6   3   47.60    5.70
  -4  -6  -3  474.45   16.40
  -4  -6  -3  454.45   15.40
   4   6   3  471.35   16.30
  -5  -6  -3  222.28    9.60
  -5  -6  -3  222.78   13.10
   5   6   3  219.18   11.20
   5   6   3  198.18   13.40
  -6  -6  -3  273.27   11.60
  -6  -6  -3  256.77   12.70
   6   6   3  281.47   12.90
   6   6   3  266.97   13.70
  -7  -6  -3  289.67   14.20
  -7  -6  -3  291.77   12.80
   7   6   3  307.07   15.20
   7   6   3  292.57   13.70
  -8  -6  -3  160.58   10.20
  -8  -6  -3  143.09   10.10
   8   6   3  161.28   11.40
   8   6   3  150.68   10.40
  11  -7  -3   80.09    7.40
  11  -7  -3   74.69    7.50
 -11   7   3   73.69    6.50
  10  -7  -3  173.38   10.30
  10  -7  -3  157.38   11.10
 -10   7   3  159.78    8.70
   9  -7  -3  444.16   16.00
   9  -7  -3  406.26   15.30
  -9   7   3  451.45   16.30
  -9   7   3  413.36   13.20
   8  -7  -3    1.50    2.00
   8  -7  -3   -2.20    2.50
  -8   7   3    5.90    3.00
   7  -7  -3   20.80    4.20
   7  -7  -3   24.70    4.20
   7  -7  -3   12.30    2.60
  -7   7   3   16.40    2.70
  -7   7   3   23.30    4.30
   6  -7  -3  742.93   20.10
   6  -7  -3  715.63   15.10
   6  -7  -3  720.93   20.50
  -6   7   3  735.83   15.10
  -6   7   3  761.52   21.20
   5  -7  -3   90.09    6.90
   5  -7  -3   80.99    3.50
   5  -7  -3   80.79    6.20
  -5   7   3   84.69    5.10
  -5   7   3   87.19    6.80
   4  -7  -3    0.10    2.00
   4  -7  -3    2.50    2.40
  -4   7   3    2.10    2.10
   3  -7  -3  492.95   15.40
   3  -7  -3  519.85   16.40
  -3   7   3  519.35   16.60
   2  -7  -3  411.16   14.00
  -2   7   3  446.76   15.10
   1  -7  -3  128.89    7.90
  -1   7   3  139.39    8.30
   0  -7  -3    4.80    2.40
   0   7   3    0.80    0.90
   0   7   3    0.80    2.00
   0   7   3    1.90    1.00
  -1  -7  -3  396.86   14.30
  -1  -7  -3  400.26    9.50
   1   7   3  382.16    9.40
   1   7   3  399.86    9.60
   1   7   3  409.16   14.80
  -2  -7  -3  105.79    7.40
   2   7   3  107.39    5.20
   2   7   3  107.39    7.70
  -3  -7  -3   42.90    4.00
  -3  -7  -3   41.80    5.90
   3   7   3   45.10    6.00
  -4  -7  -3   12.00    2.80
  -4  -7  -3    6.40    3.80
   4   7   3   14.50    3.80
   4   7   3   13.60    4.70
  -5  -7  -3   75.59    5.90
  -5  -7  -3   64.99    7.30
  -6  -7  -3  238.18   11.00
  -6  -7  -3  247.78   13.00
   6   7   3  249.38   12.80
   6   7   3  259.77   14.10
  -7  -7  -3   34.00    5.20
  -7  -7  -3   29.80    5.30
   7   7   3   34.70    6.20
   7   7   3   31.60    5.50
  11  -8  -3   76.79    8.20
  11  -8  -3   81.29    8.10
 -11   8   3   87.79    6.90
 -11   8   3   85.59    8.70
  10  -8  -3  330.17   17.10
  10  -8  -3  299.17   14.00
 -10   8   3  321.77   14.80
 -10   8   3  334.87   12.20
   9  -8  -3  183.18   10.70
   9  -8  -3  188.88   10.70
  -9   8   3  183.88    8.40
  -9   8   3  200.18   11.20
   8  -8  -3    1.10    3.00
   8  -8  -3    0.30    4.20
  -8   8   3    4.00    2.00
   7  -8  -3  203.88   10.40
   7  -8  -3  200.58    7.40
   7  -8  -3  209.68   11.00
  -7   8   3  208.98   11.20
   6  -8  -3  202.68   10.70
   6  -8  -3  200.18    6.40
   6  -8  -3  228.48   10.60
  -6   8   3  214.98   11.30
  -6   8   3  204.88    6.30
   5  -8  -3   89.89    7.20
   5  -8  -3   87.49    6.90
  -5   8   3   92.39    7.40
  -5   8   3   79.19    2.90
  -5   8   3   80.29    3.00
   4  -8  -3   18.60    3.70
   4  -8  -3   18.80    3.80
  -4   8   3   14.60    3.70
   3  -8  -3  399.66   14.30
  -3   8   3  407.66   15.30
   2  -8  -3 1005.70   24.90
  -2   8   3  993.10   26.00
   1  -8  -3  141.59    8.50
  -1   8   3  137.49    8.80
   0  -8  -3   20.70    3.80
   0   8   3   16.10    1.80
   0   8   3   16.60    2.00
   0   8   3   17.60    4.00
  -1  -8  -3 1041.10   19.60
  -1  -8  -3 1053.99   26.80
   1   8   3 1077.29   19.80
   1   8   3 1104.39   28.00
   1   8   3 1044.30   19.60
  -2  -8  -3  256.37   14.10
  -2  -8  -3  238.88    8.20
   2   8   3  226.98    7.90
   2   8   3  243.28   12.10
  -3  -8  -3   14.70    3.90
  -3  -8  -3   15.30    2.80
  -4  -8  -3   52.39    6.30
  -4  -8  -3   39.60    4.60
   4   8   3   33.20    5.80
   4   8   3   34.60    5.90
  -5  -8  -3  289.27   11.50
  -5  -8  -3  284.87   14.20
   5   8   3  260.57   13.30
   5   8   3  308.77   15.50
  -6  -8  -3  120.99    8.40
  -6  -8  -3  117.39    9.10
   6   8   3  126.89   10.30
   6   8   3  109.89    9.40
  10  -9  -3   16.80    4.70
  10  -9  -3   11.80    4.20
 -10   9   3   18.60    3.70
 -10   9   3   25.00    5.20
   9  -9  -3  305.77   16.40
   9  -9  -3  299.87   14.30
  -9   9   3  290.47   11.20
  -9   9   3  274.87   14.10
   8  -9  -3  177.98   10.40
   8  -9  -3  181.28   10.80
  -8   9   3  172.08    7.00
  -8   9   3  177.48   11.40
   7  -9  -3   65.19    6.70
   7  -9  -3   57.99    6.30
  -7   9   3   65.79    7.40
  -7   9   3   66.49    3.90
   6  -9  -3   -1.40    2.30
   6  -9  -3   -0.10    2.30
  -6   9   3    1.50    2.80
  -6   9   3   -1.90    1.10
   5  -9  -3   46.90    5.80
   5  -9  -3   45.50    7.70
  -5   9   3   38.30    6.90
   4  -9  -3 1021.60   26.00
   3  -9  -3  403.56   15.10
   2  -9  -3   -1.70    2.60
   1  -9  -3  113.39    8.20
   0  -9  -3  357.66   22.00
   0   9   3  347.37    7.60
   0   9   3  343.47   15.40
   0   9   3  352.16    7.60
  -1  -9  -3  211.48   11.30
   1   9   3  217.68   12.00
   1   9   3  225.68    6.90
   1   9   3  209.48    6.80
  -2  -9  -3   33.80    3.50
  -2  -9  -3   28.60    5.20
   2   9   3   28.90    4.90
   2   9   3   21.80    2.90
  -3  -9  -3   70.29    7.80
  -3  -9  -3   94.49    8.30
   3   9   3   88.19    7.90
  -4  -9  -3  221.78    9.40
  -4  -9  -3  228.88   13.00
   4   9   3  248.98   14.10
   4   9   3  239.08   13.20
  -5  -9  -3   78.89    7.80
  -5  -9  -3   67.39    6.50
   5   9   3   41.80    6.80
   5   9   3   50.79    7.60
   9 -10  -3  126.59    9.10
  -9  10   3  131.89   10.00
   8 -10  -3  310.47   15.00
   8 -10  -3  303.27   13.60
  -8  10   3  293.17   15.20
   7 -10  -3   24.30    4.60
   7 -10  -3   20.40    4.80
  -7  10   3   15.70    4.90
   6 -10  -3    1.70    2.80
  -6  10   3   -2.60    2.10
   5 -10  -3  262.37   19.30
   5 -10  -3  236.28   12.70
  -5  10   3  264.27   13.80
   4 -10  -3  553.64   27.80
  -4  10   3  630.64   21.60
   3 -10  -3  182.98   12.50
  -3  10   3  173.48   11.10
   2 -10  -3   63.69    6.70
  -2  10   3   58.09    6.70
   1 -10  -3  213.18   11.40
  -1  10   3  211.58   12.20
   0 -10  -3  268.87   13.00
   0  10   3  253.77   13.40
   0  10   3  218.38    6.50
  -1 -10  -3  114.99    8.80
   1  10   3  120.89    9.50
   1  10   3  109.19    4.80
  -2 -10  -3   10.00    3.40
   2  10   3    6.20    2.30
   2  10   3    6.30    3.70
  -3 -10  -3  140.09   10.00
  -3 -10  -3  151.58    9.00
   3  10   3  128.19   10.30
   3  10   3  140.59   10.80
  -4 -10  -3  166.08    8.70
   4  10   3  182.58   11.20
   4  10   3  176.58   12.00
   4  10   3  159.18   14.00
   7 -11  -3  109.99    8.70
   7 -11  -3  101.89    9.30
  -7  11   3   97.29    9.20
   6 -11  -3  226.88   12.00
   6 -11  -3  217.78   13.10
  -6  11   3  201.58   13.10
   5 -11  -3  112.09    8.30
  -5  11   3   97.29    8.90
   4 -11  -3    9.90    3.80
  -4  11   3   11.70    4.00
   3 -11  -3   91.29    8.00
  -3  11   3   83.99    8.60
   2 -11  -3  190.18   11.40
  -2  11   3  191.38   12.10
   1 -11  -3   95.39    8.50
  -1  11   3  106.89    9.20
   0 -11  -3    2.20    2.90
   0  11   3    2.10    3.40
  -1 -11  -3   91.79    8.70
   1  11   3   84.19    8.40
   2  11   3   56.49    8.80
   4 -12  -3   -5.50    2.60
  -4  12   3   -0.30    3.10
   3 -12  -3   82.39    7.80
  -3  12   3   90.09   12.00
  -2  12   3  147.29   11.40
   1  13  -4   28.50    5.10
   1  13  -4   41.80    5.60
   1  13  -4   41.50    6.40
   0  13  -4   67.59    6.80
   0  13  -4   64.59    7.10
   0  13  -4   87.79    8.60
   0 -13   4   93.79    8.50
  -1  13  -4   14.50    3.50
  -1  13  -4    8.90    4.40
  -1  13  -4    9.80    3.90
   1 -13   4   17.60    4.90
  -2  13  -4  481.55   15.30
  -2  13  -4  479.45   19.50
  -2  13  -4  504.25   20.80
   2 -13   4  499.55   19.30
  -3  13  -4  175.28    8.30
  -3  13  -4  184.98   12.70
  -3  13  -4  162.98   11.50
   3 -13   4  169.88   11.50
  -4  13  -4   14.30    4.80
  -4  13  -4    7.50    3.80
   4 -13   4   18.80    4.40
  -5  13  -4   31.90    5.70
   5 -13   4   33.70    7.40
   4  12  -4   63.99    7.20
   4  12  -4   78.99    8.20
  -4 -12   4   65.89    6.90
   3  12  -4  251.17   12.40
   3  12  -4  254.07   12.80
   3  12  -4  241.88   12.70
  -3 -12   4  232.78   12.10
   2  12  -4  206.78   11.20
   2  12  -4  186.68   10.90
   2  12  -4  188.88   11.00
   1  12  -4   12.50    3.50
   1  12  -4   15.80    4.30
  -1 -12   4   17.40    4.30
   0  12  -4  133.89    8.40
   0  12  -4  138.19    9.80
   0  12  -4  134.89    8.90
   0 -12   4  139.49    9.70
  -1  12  -4  381.16   16.40
  -1  12  -4  392.76   15.10
  -1  12  -4  394.66   13.80
   1 -12   4  406.96   16.40
  -2  12  -4  654.13   21.90
  -2  12  -4  645.74   17.50
  -2  12  -4  639.34   19.80
   2 -12   4  659.03   21.60
   2 -12   4  654.43   17.00
  -3  12  -4    1.40    1.90
  -3  12  -4   -3.50    2.50
   3 -12   4    0.40    2.60
   3 -12   4    3.50    3.00
  -4  12  -4  165.48    6.80
  -4  12  -4  149.49    9.50
   4 -12   4  153.08    6.60
   4 -12   4  160.48   10.60
   5 -12   4  223.08   12.50
  -6  12  -4  108.09    8.80
   6 -12   4  112.69    9.60
  -7  12  -4   -3.20    2.70
   7 -12   4    1.40    2.90
   5  11  -4    5.90    3.50
   5  11  -4   -0.20    2.50
   5  11  -4    2.00    2.80
  -5 -11   4    3.70    3.20
   4  11  -4   57.69    6.70
   4  11  -4   58.69    6.00
   4  11  -4   55.29    7.10
  -4 -11   4   69.59    7.10
   3  11  -4  115.09    8.80
   3  11  -4  125.89   10.20
   3  11  -4  122.59    8.40
  -3 -11   4  108.29    8.60
   2  11  -4   48.80    6.30
   2  11  -4   59.19    6.10
   2  11  -4   60.89    6.30
   1  11  -4   -1.20    2.00
   1  11  -4    4.80    2.60
   1  11  -4   -2.20    2.20
  -1 -11   4    1.60    2.40
   0  11  -4  192.58    9.30
   0  11  -4  215.58   11.30
   0  11  -4  215.18   10.50
   0 -11   4  197.28   10.60
  -1  11  -4  299.67   13.60
  -1  11  -4  315.37   11.40
  -1  11  -4  317.47   12.90
   1 -11   4  324.47   13.70
   1 -11   4  315.27   11.00
  -2  11  -4   88.49    5.80
  -2  11  -4  117.19    8.00
   2 -11   4  111.69    9.60
   2 -11   4   97.39    5.70
  -3  11  -4   20.10    4.30
  -3  11  -4   21.80    2.90
   3 -11   4   22.00    4.90
   3 -11   4   28.50    3.40
  -4  11  -4  108.49    6.00
  -4  11  -4  103.89    7.80
  -4  11  -4   93.29    6.00
   4 -11   4  110.09    8.30
  -5  11  -4  105.29    8.00
  -5  11  -4  123.69    5.50
   5 -11   4  107.29    8.60
  -6  11  -4   96.49    8.30
   6 -11   4  107.99    8.70
  -7  11  -4   47.00    6.50
   7 -11   4   56.39    6.70
  -8  11  -4   85.79    7.90
   8 -11   4   93.29    8.60
  -9  11  -4  323.77   15.30
   9 -11   4  348.87   20.00
   7  10  -4   71.99    7.90
   7  10  -4   66.39    5.70
  -7 -10   4   64.99    7.30
   6  10  -4   48.40    6.70
   6  10  -4   53.39    5.60
   6  10  -4   69.09    7.50
  -6 -10   4   62.79    7.00
   5  10  -4  447.06   17.60
   5  10  -4  444.96   17.10
   5  10  -4  417.76   14.10
  -5 -10   4  416.36   16.30
   4  10  -4  387.86   13.50
   4  10  -4  410.26   19.00
   3  10  -4    9.70    3.50
   3  10  -4   10.00    3.00
   3  10  -4   19.10    3.90
  -3 -10   4   14.20    3.30
   2  10  -4  110.19    7.60
   2  10  -4  139.49    8.40
   2  10  -4  110.79    7.60
  -2 -10   4  115.99    7.50
  -2 -10   4  117.69    7.80
   1  10  -4  852.91   21.70
   1  10  -4  807.52   21.90
   1  10  -4  841.22   22.30
  -1 -10   4  823.82   21.80
   0  10  -4  517.75   16.70
   0  10  -4  545.25   15.60
   0  10  -4  550.14   17.50
   0 -10   4  522.85   16.90
  -1  10  -4   30.40    4.70
  -1  10  -4   28.00    3.80
   1 -10   4   30.90    3.80
   1 -10   4   37.30    5.30
  -2  10  -4  280.77    9.40
  -2  10  -4  289.97   11.80
   2 -10   4  276.37   12.30
   2 -10   4  294.47    9.40
  -3  10  -4  134.59    6.50
  -3  10  -4  138.09    6.50
  -3  10  -4  142.69    8.60
   3 -10   4  132.19    8.80
  -4  10  -4  581.14   12.40
  -4  10  -4  574.84   17.80
  -4  10  -4  548.85   12.10
   4 -10   4  591.74   19.00
   4 -10   4  579.34   12.20
  -5  10  -4   52.39    5.80
  -5  10  -4   51.39    2.60
  -5  10  -4   55.99    2.70
   5 -10   4   48.20    7.60
  -6  10  -4  401.46   15.40
   6 -10   4  394.36   16.20
   7 -10   4  595.14   20.80
  -8  10  -4  275.87   13.50
   8 -10   4  293.87   14.40
  -9  10  -4    1.90    3.40
   9 -10   4    1.80    2.80
   8   9  -4   -0.70    3.70
  -8  -9   4    9.50    4.20
   7   9  -4   14.90    3.30
   7   9  -4   13.60    4.50
  -7  -9   4   13.00    4.00
   6   9  -4  260.17   13.30
   6   9  -4  258.27   10.10
  -6  -9   4  263.37   13.20
   5   9  -4   10.20    4.10
   5   9  -4   13.80    2.90
   4   9  -4   53.19    5.90
   4   9  -4   53.09    6.10
   4   9  -4   51.79    4.80
  -4  -9   4   54.89    5.80
   3   9  -4   13.50    3.20
   3   9  -4   16.20    3.30
   3   9  -4   18.40    4.00
  -3  -9   4   14.50    3.80
   2   9  -4  682.63   19.30
   2   9  -4  689.53   18.40
   2   9  -4  687.63   18.80
  -2  -9   4  654.33   18.80
  -2  -9   4  662.43   17.90
   1   9  -4  563.14   16.70
   1   9  -4  556.74   15.90
   1   9  -4  565.54   17.00
  -1  -9   4  559.34   16.30
   0   9  -4    0.30    1.60
   0   9  -4    3.30    2.20
   0   9  -4    4.50    2.80
   0  -9   4    1.90    2.00
  -1   9  -4  172.38    7.20
  -1   9  -4  177.28    7.20
  -1   9  -4  166.48    8.80
   1  -9   4  157.98    8.60
  -2   9  -4  162.98    6.40
  -2   9  -4  155.58    7.40
  -2   9  -4  165.68    8.60
   2  -9   4  170.18    8.90
   2  -9   4  165.48    6.40
  -3   9  -4  281.57    7.80
  -3   9  -4  287.37    7.80
  -3   9  -4  283.27   11.40
   3  -9   4  266.97   11.60
   3  -9   4  282.37    7.60
  -4   9  -4  204.28    5.60
  -4   9  -4  215.98   10.00
  -4   9  -4  196.08    5.50
   4  -9   4  205.68   10.60
  -5   9  -4   35.80    4.90
   5  -9   4   44.10    5.90
  -6   9  -4  781.82   21.90
   6  -9   4  773.92   23.60
  -7   9  -4  133.89    8.90
   7  -9   4  130.19    9.00
  -8   9  -4   84.29    7.60
   8  -9   4   74.49    7.40
  -9   9  -4    0.60    3.50
   9  -9   4    7.50    3.70
 -10   9  -4   69.69    8.20
  10  -9   4   69.19    7.80
  -9  -8   4   87.79    8.80
   8   8  -4  112.09    9.50
   8   8  -4  101.39    5.50
  -8  -8   4  102.49    8.60
   7   8  -4  221.48   12.60
   7   8  -4  184.48    7.70
  -7  -8   4  211.78   12.10
   6   8  -4  336.37   15.00
   6   8  -4  313.27   10.30
   5   8  -4   49.30    5.80
   5   8  -4   34.30    3.60
  -5  -8   4   37.40    5.20
   4   8  -4  317.37   12.90
   4   8  -4  323.67   13.30
   4   8  -4  307.67   10.40
  -4  -8   4  313.77   12.80
   3   8  -4  762.62   20.20
   3   8  -4  733.73   20.40
   3   8  -4  745.03   18.10
  -3  -8   4  739.73   20.00
   2   8  -4 1070.69   24.30
   2   8  -4 1099.19   23.60
   2   8  -4 1071.89   25.10
  -2  -8   4 1043.80   24.60
  -2  -8   4 1078.59   23.30
   1   8  -4  352.06   11.30
   1   8  -4  327.97   11.50
   1   8  -4  337.67   12.10
  -1  -8   4  342.07   12.00
  -1  -8   4  328.67   11.30
   0   8  -4  371.76   10.90
   0   8  -4  374.16   12.60
   0   8  -4  382.96   11.20
   0  -8   4  380.06   14.80
  -1   8  -4 2835.52   49.90
  -1   8  -4 2822.12   45.90
  -1   8  -4 2719.63   48.50
   1  -8   4 2785.42   49.70
  -2   8  -4  608.24   13.00
  -2   8  -4  637.04   17.10
  -2   8  -4  578.84   12.60
   2  -8   4  599.74   17.00
  -3   8  -4   75.59    3.30
  -3   8  -4   87.59    6.50
  -3   8  -4   75.89    3.30
   3  -8   4   74.69    6.10
  -4   8  -4  611.64   17.50
   4  -8   4  582.24   17.70
  -5   8  -4 1434.16   31.00
   5  -8   4 1387.26   31.60
  -6   8  -4   98.89    7.30
   6  -8   4   91.49    7.20
  -7   8  -4  154.78    9.60
   7  -8   4  151.78    9.70
  -8   8  -4  302.67   15.70
   8  -8   4  295.17   13.70
  -9   8  -4  414.86   16.60
   9  -8   4  414.56   17.00
 -10   8  -4  225.98   12.70
  10  -8   4  217.98   12.50
 -11   8  -4   -2.10    2.60
  11  -8   4   -1.60    3.40
   9   7  -4   48.30    7.50
  -9  -7   4   30.10    5.30
   8   7  -4   58.09    7.00
  -8  -7   4   73.39    7.20
   7   7  -4  103.99    5.20
   7   7  -4  122.89    8.90
  -7  -7   4  120.99    8.60
   6   7  -4   -0.90    2.40
   6   7  -4    0.80    1.50
  -6  -7   4   -0.40    2.00
   5   7  -4   24.20    4.40
   5   7  -4   24.80    3.10
  -5  -7   4   28.90    4.50
   4   7  -4  402.66   13.90
   4   7  -4  383.16   12.60
   4   7  -4  398.86   10.90
  -4  -7   4  385.66   13.70
   3   7  -4  572.24   16.10
   3   7  -4  562.04   16.50
   3   7  -4  555.34   14.00
   3   7  -4  563.64   13.80
  -3  -7   4  538.25   16.00
   2   7  -4  121.49    6.00
   2   7  -4  111.69    5.70
   2   7  -4  126.99    7.30
   2   7  -4  122.79    6.60
  -2  -7   4  125.99    7.10
  -2  -7   4  123.29    5.90
   1   7  -4    0.40    1.30
   1   7  -4    0.70    1.40
  -1  -7   4    1.70    1.50
   0   7  -4  171.58    6.60
   0   7  -4  174.48    8.00
   0   7  -4  168.78    6.50
   0  -7   4  174.28    7.50
  -1   7  -4  954.00   18.20
  -1   7  -4  958.10   21.70
  -1   7  -4  968.00   18.10
   1  -7   4  948.21   21.40
  -2   7  -4  163.58    8.00
  -2   7  -4  162.78    4.90
  -2   7  -4  164.08    4.90
  -3   7  -4  108.89    2.90
  -3   7  -4  103.59    6.60
   3  -7   4  102.99    6.40
  -4   7  -4   84.19    6.00
   4  -7   4   74.89    5.90
  -5   7  -4  542.85   16.40
   5  -7   4  536.75   16.70
  -6   7  -4   65.49    6.00
   6  -7   4   69.39    6.30
  -7   7  -4  154.28    9.10
   7  -7   4  164.18    9.50
  -8   7  -4  233.48   11.60
   8  -7   4  220.68   13.50
  -9   7  -4  166.38   10.30
   9  -7   4  149.09    4.50
   9  -7   4  170.98   10.60
 -10   7  -4   -3.90    2.30
  10  -7   4   -3.00    1.50
  10  -7   4    1.30    2.60
 -11   7  -4    5.10    3.80
  11  -7   4    6.60    3.30
 -10  -6   4   13.10    4.00
   9   6  -4  335.67    8.70
   9   6  -4  355.16   16.00
  -9  -6   4  353.86   15.60
   8   6  -4  372.16    9.10
   8   6  -4  385.86   16.00
   8   6  -4  349.77    8.90
  -8  -6   4  382.46   15.50
   7   6  -4  242.18   11.80
   7   6  -4  218.18    6.80
   7   6  -4  214.28    6.60
  -7  -6   4  236.28   11.50
   6   6  -4    3.60    1.40
   6   6  -4    0.70    2.10
   6   6  -4    0.80    1.20
  -6  -6   4    2.40    2.40
   5   6  -4  690.43   14.40
   5   6  -4  683.03   14.50
   5   6  -4  714.13   19.80
  -5  -6   4  729.73   19.80
   4   6  -4 2010.70   33.30
   4   6  -4 1940.11   33.00
   4   6  -4 1983.40   38.30
  -4  -6   4 1936.71   38.00
   3   6  -4  302.87    8.40
   3   6  -4  303.57    8.60
   3   6  -4  317.07   10.90
  -3  -6   4  273.37   10.50
  -3  -6   4  280.97    8.30
   2   6  -4  215.78    7.50
   2   6  -4  225.48    9.00
   2   6  -4  236.18    8.60
  -2  -6   4  228.98    8.90
  -2  -6   4  227.68    7.50
   1   6  -4 1263.17   23.70
   1   6  -4 1217.38   23.70
   1   6  -4 1282.57   26.50
   1   6  -4 1226.38   25.70
  -1  -6   4 1272.67   25.70
   0   6  -4 1495.15   29.10
   0   6  -4 1457.15   27.70
   0   6  -4 1502.35   26.20
   0   6  -4 1501.05   25.90
   0  -6   4 1483.95   27.90
  -1   6  -4  301.17   10.20
  -1   6  -4  287.67    9.10
  -1   6  -4  296.37    7.20
   1  -6   4  301.17    9.70
  -2   6  -4    4.50    2.00
  -2   6  -4    3.30    0.80
  -2   6  -4    3.60    0.80
   2  -6   4    4.00    2.00
  -3   6  -4 1308.37   27.10
   3  -6   4 1308.57   27.10
  -4   6  -4 1400.16   29.70
   4  -6   4 1413.76   29.50
  -5   6  -4    5.10    2.50
   5  -6   4    5.60    2.60
  -6   6  -4   11.90    3.40
   6  -6   4   15.00    3.40
  -7   6  -4 2296.77   45.40
   7  -6   4 2298.47   34.40
   7  -6   4 2335.17   45.90
  -8   6  -4  272.67   12.40
   8  -6   4  248.08    6.40
   8  -6   4  278.77   12.60
  -9   6  -4    9.70    3.70
   9  -6   4    8.80    1.90
   9  -6   4   12.90    3.90
   9  -6   4   10.60    2.00
 -10   6  -4  158.58   10.50
  10  -6   4  184.58   11.00
 -11   6  -4  361.76   16.60
  11  -6   4  334.07   10.60
  11  -6   4  345.47   15.80
  10   5  -4   91.39    9.20
 -10  -5   4  115.09    9.00
   9   5  -4   72.09    7.80
   9   5  -4   85.19    5.10
  -9  -5   4   89.49    7.90
   8   5  -4   85.49    3.40
   8   5  -4   89.19   13.80
  -8  -5   4  106.69   12.90
   7   5  -4    1.00    1.00
   7   5  -4    0.80    2.10
   7   5  -4    3.40    1.40
  -7  -5   4   -1.80    1.90
   6   5  -4  362.26    8.10
   6   5  -4  352.26    8.80
   6   5  -4  350.46   13.30
  -6  -5   4  391.66   13.80
   5   5  -4  628.24   13.10
   5   5  -4  660.53   18.00
   5   5  -4  600.44   12.00
  -5  -5   4  606.84   17.40
   4   5  -4   11.40    3.20
   4   5  -4   10.90    1.60
  -4  -5   4    9.90    2.50
   3   5  -4  280.67    7.20
   3   5  -4  265.37    9.50
   3   5  -4  275.77    7.30
  -3  -5   4  274.67   10.00
  -3  -5   4  270.47    7.10
   2   5  -4  162.68    5.50
   2   5  -4  162.68    6.40
   2   5  -4  165.78    7.30
  -2  -5   4  164.38    5.60
  -2  -5   4  154.58    6.40
  -2  -5   4  168.78    7.30
   1   5  -4  719.73   14.90
   1   5  -4  708.73   15.00
   1   5  -4  728.73   16.90
   1   5  -4  707.83   15.20
  -1  -5   4  743.43   15.30
  -1  -5   4  731.63   16.90
  -1  -5   4  737.13   15.20
   0   5  -4  332.47    8.20
   0   5  -4  324.27   10.10
   0   5  -4  339.27   10.10
   0   5  -4  338.97   13.50
   0   5  -4  334.27    8.10
   0  -5   4  315.37    9.90
   0  -5   4  332.27    9.30
  -1   5  -4  134.29    6.30
  -1   5  -4  136.59    5.90
  -1   5  -4  133.19    3.90
  -1   5  -4  129.09    6.00
  -1   5  -4  133.39    3.90
   1  -5   4  123.79    5.90
  -2   5  -4  669.53   16.10
  -2   5  -4  658.93   15.90
   2  -5   4  650.93   15.70
  -3   5  -4  953.50   21.20
   3  -5   4  959.10   21.20
  -4   5  -4  238.38    9.50
   4  -5   4  243.48    9.90
  -5   5  -4  172.48    8.30
   5  -5   4  165.08    8.20
  -6   5  -4  807.42   21.00
   6  -5   4  810.72   21.10
   6  -5   4  823.62   13.60
   6  -5   4  809.32   14.60
  -7   5  -4  277.87   11.90
   7  -5   4  281.57   12.00
   7  -5   4  272.67    6.80
  -8   5  -4  242.08   11.50
   8  -5   4  228.18   11.20
   8  -5   4  220.98    6.80
   8  -5   4  221.48    7.00
  -9   5  -4    4.50    3.30
   9  -5   4   15.10    2.40
   9  -5   4   19.30    4.40
 -10   5  -4  197.68   11.70
  10  -5   4  201.48   11.40
  10  -5   4  204.58    8.10
 -11   5  -4  290.27   14.50
  11  -5   4  285.47   14.30
  11   4  -4  252.57   14.00
 -11  -4   4  259.67   13.80
  10   4  -4  355.36   16.10
 -10  -4   4  374.06   16.00
   9   4  -4   67.69    7.20
   9   4  -4   73.29    2.50
  -9  -4   4   71.59    7.10
   8   4  -4   51.99    2.70
   8   4  -4   38.10    5.50
   8   4  -4   51.79    2.10
  -8  -4   4   44.20    5.80
   7   4  -4  365.76    6.90
   7   4  -4  368.06   14.00
  -7  -4   4  373.06   13.80
   6   4  -4  830.02   13.90
   6   4  -4  833.42   21.60
  -6  -4   4  879.21   21.80
   5   4  -4   68.29    2.30
   5   4  -4   70.59    3.10
   5   4  -4   58.29    4.90
  -5  -4   4   67.49    5.30
   4   4  -4  311.47   10.60
   4   4  -4  320.17    6.50
   4   4  -4  315.07    6.50
  -4  -4   4  318.77   10.90
   3   4  -4 4153.78   61.09
   3   4  -4 4129.49   65.99
   3   4  -4 4095.29   65.39
   3   4  -4 4189.88   60.99
  -3  -4   4 4112.49   60.99
  -3  -4   4 4145.29   65.89
  -3  -4   4 4039.40   66.29
   2   4  -4 3223.38   52.69
   2   4  -4 3211.98   51.59
   2   4  -4 3136.69   48.60
   2   4  -4 3172.48   52.89
  -2  -4   4 3229.38   52.69
  -2  -4   4 3265.97   48.90
  -2  -4   4 3201.88   54.19
   1   4  -4  596.54   12.30
   1   4  -4  611.64   14.30
   1   4  -4  621.84   14.90
   1   4  -4  594.64   12.60
   1   4  -4  611.14   12.90
  -1  -4   4  609.54   12.90
  -1  -4   4  601.94   12.40
  -1  -4   4  609.94   14.90
   0   4  -4  416.16    8.70
   0   4  -4  396.86    9.80
   0   4  -4  418.26    8.90
   0   4  -4  421.26   11.00
   0  -4   4  406.16   10.00
   0  -4   4  397.56   10.80
   0  -4   4  407.26    8.80
  -1   4  -4 3604.34   58.79
  -1   4  -4 3749.02   62.89
  -1   4  -4 3716.33   54.29
  -1   4  -4 3719.03   60.89
  -1   4  -4 3765.62   54.19
   1  -4   4 3705.33   58.49
   1  -4   4 3643.74   58.89
   1  -4   4 3703.53   54.29
  -2   4  -4 1033.90   21.00
  -2   4  -4  974.60   20.20
   2  -4   4 1007.50   21.00
   2  -4   4  997.10   20.60
  -3   4  -4 1610.64   30.70
   3  -4   4 1658.13   30.80
  -4   4  -4 1052.29   22.90
   4  -4   4 1060.29   23.00
  -5   4  -4 2436.86   44.40
   5  -4   4 2429.16   36.70
   5  -4   4 2497.55   44.70
   5  -4   4 2397.26   36.50
  -6   4  -4 1509.55   31.70
   6  -4   4 1497.55   31.60
   6  -4   4 1511.95   24.80
  -7   4  -4   12.10    3.30
   7  -4   4   18.10    2.20
   7  -4   4   11.00    3.10
  -8   4  -4   15.50    3.80
   8  -4   4    9.40    3.10
   8  -4   4   14.60    2.30
  -9   4  -4  533.75   27.20
   9  -4   4  538.65   13.90
   9  -4   4  545.25   18.40
 -10   4  -4  567.84   19.90
  10  -4   4  558.34   19.30
 -11   4  -4   67.19    7.20
  11  -4   4   65.49    5.90
  11  -4   4   64.09    7.10
  12  -4   4   44.50    5.70
  11   3  -4  117.39    9.60
 -11  -3   4  134.19    9.70
  10   3  -4    7.80    3.10
 -10  -3   4    2.90    2.70
   9   3  -4   50.59    7.90
  -9  -3   4   38.40    6.40
   8   3  -4  172.68    9.80
  -8  -3   4  181.58    9.80
   7   3  -4  240.78   10.80
  -7  -3   4  243.68   10.70
   6   3  -4    4.70    2.20
  -6  -3   4    5.10    2.20
   5   3  -4  227.68    9.20
  -5  -3   4  225.88    9.30
   4   3  -4 1654.13   31.30
  -4  -3   4 1659.03   31.30
   3   3  -4  471.75    8.20
   3   3  -4  490.75    8.40
   3   3  -4  502.95   12.80
  -3  -3   4  483.65    8.20
  -3  -3   4  492.65   12.80
  -3  -3   4  492.15   12.50
   2   3  -4  888.41   14.90
   2   3  -4  903.81   17.80
   2   3  -4  893.41   18.30
  -2  -3   4  872.51   17.60
  -2  -3   4  885.21   15.00
   1   3  -4  704.93   20.30
   1   3  -4  666.93   14.80
   1   3  -4  678.93   13.60
   1   3  -4  666.23   12.80
  -1  -3   4  686.43   14.90
  -1  -3   4  669.03   12.80
  -1  -3   4  683.23   13.60
   0   3  -4  737.23   15.70
   0   3  -4  705.13   14.40
   0   3  -4  769.22   15.90
   0   3  -4  739.43   13.40
   0  -3   4  731.73   13.40
   0  -3   4  743.53   14.60
   0  -3   4  725.73   15.70
  -1   3  -4  175.48    6.60
  -1   3  -4  168.98    4.10
  -1   3  -4  174.88    6.10
   1  -3   4  170.78    6.10
   1  -3   4  160.58    4.00
  -2   3  -4  132.19    2.90
  -2   3  -4  120.69    5.40
   2  -3   4  137.69    6.90
   2  -3   4  123.39    5.50
   2  -3   4  134.39    3.00
  -3   3  -4  236.28    8.40
  -3   3  -4  227.18    8.20
   3  -3   4  226.58    5.20
   3  -3   4  235.28    4.70
   3  -3   4  243.18    8.50
   3  -3   4  238.18    8.30
  -4   3  -4  753.02   17.90
   4  -3   4  738.63   17.80
   4  -3   4  741.43   12.90
   4  -3   4  752.32   13.10
   5  -3   4  789.12   14.60
  -6   3  -4    4.70    2.70
   6  -3   4    8.10    2.50
   6  -3   4    5.40    1.50
   6  -3   4    6.00    1.60
  -7   3  -4   17.60    4.00
   7  -3   4   17.90    3.00
   7  -3   4   20.10    3.90
   7  -3   4   18.10    3.00
  -8   3  -4  273.27   12.20
   8  -3   4  273.97    9.30
   8  -3   4  269.67   12.00
   8  -3   4  290.87   13.00
   9  -3   4  334.07   11.20
   9  -3   4  322.97   13.70
 -10   3  -4   79.39    7.60
  10  -3   4   82.19    7.30
  10  -3   4   68.39    5.70
 -11   3  -4  111.09    9.10
  11  -3   4   90.19    7.00
  11  -3   4  106.09    8.80
  12   2  -4  296.97   15.20
 -12  -2   4  298.77   14.60
  11   2  -4  147.69   10.50
 -11  -2   4  147.39   10.30
  10   2  -4   32.50    1.90
  10   2  -4   25.50    5.00
 -10  -2   4   33.40    5.50
 -10  -2   4   25.10    2.30
   9   2  -4  299.87    6.20
   9   2  -4  305.77   13.60
  -9  -2   4  323.17   13.40
  -9  -2   4  286.87    6.30
   8   2  -4  807.52   22.10
  -8  -2   4  751.62   20.90
   7   2  -4  855.11   22.00
  -7  -2   4  848.12   21.30
   6   2  -4   68.39    5.30
  -6  -2   4   59.79    4.90
   5   2  -4 1498.65   29.90
  -5  -2   4 1511.45   29.40
   4   2  -4 4990.20   78.49
   4   2  -4 5013.10   77.89
  -4  -2   4 4903.31   78.29
  -4  -2   4 5032.70   78.09
   3   2  -4  887.71   18.60
   3   2  -4  850.51   17.80
  -3  -2   4  834.92   18.30
  -3  -2   4  909.41   20.50
   2   2  -4   95.79    4.60
   2   2  -4  100.59    2.90
   2   2  -4   95.59    4.50
   2   2  -4   91.59    4.40
  -2  -2   4   96.79    4.60
  -2  -2   4   96.89    2.90
  -2  -2   4   93.09    4.40
   1   2  -4 1391.56   22.90
   1   2  -4 1417.46   24.80
   1   2  -4 1401.66   24.80
   1   2  -4 1402.76   24.00
  -1  -2   4 1419.46   24.80
  -1  -2   4 1373.86   22.80
  -1  -2   4 1366.26   23.80
   0   2  -4 3271.47   50.49
   0   2  -4 3183.58   49.30
   0   2  -4 3181.48   50.19
   0   2  -4 3219.58   48.60
   0  -2   4 3138.89   50.09
   0  -2   4 3186.98   48.50
   0  -2   4 3164.28   49.40
  -1   2  -4   48.00    3.30
  -1   2  -4   56.09    2.50
  -1   2  -4   52.79    3.30
   1  -2   4   51.99    3.30
   1  -2   4   50.79    3.30
   1  -2   4   50.89    2.40
  -2   2  -4    4.10    1.80
  -2   2  -4    6.70    2.00
   2  -2   4    7.30    1.10
   2  -2   4    4.40    1.70
  -3   2  -4 2624.64   44.20
  -3   2  -4 2555.64   44.00
  -3   2  -4 2674.73   40.00
   3  -2   4 2623.64   44.40
   3  -2   4 2592.14   43.80
   3  -2   4 2581.84   39.90
  -4   2  -4 1063.29   20.40
  -4   2  -4 1073.89   22.80
   4  -2   4 1095.49   19.40
   4  -2   4 1075.09   19.10
   4  -2   4 1108.29   24.60
  -5   2  -4  517.35   16.50
   5  -2   4  494.45   11.60
   5  -2   4  507.65   15.00
   5  -2   4  483.95   11.30
  -6   2  -4  555.54   16.20
   6  -2   4  549.95   14.80
   6  -2   4  585.94   16.50
   6  -2   4  548.35   15.00
  -7   2  -4  762.32   20.60
   7  -2   4  724.03   17.00
   7  -2   4  763.32   20.60
   7  -2   4  734.83   17.20
  -8   2  -4  463.15   16.20
   8  -2   4  481.55   13.80
   8  -2   4  496.05   16.50
  -9   2  -4  161.98   15.60
   9  -2   4  163.18    8.20
   9  -2   4  149.09    9.50
 -10   2  -4  208.08   12.00
  10  -2   4  211.58    9.90
  10  -2   4  201.58   11.40
 -11   2  -4  270.37   14.00
  11  -2   4  231.38   11.20
  11  -2   4  251.17   13.10
  12   1  -4   -2.80    3.40
 -12  -1   4    1.40    3.40
  11   1  -4   -0.90    1.30
  11   1  -4   -1.20    2.20
 -11  -1   4    0.90    3.00
  10   1  -4   58.99    8.50
 -10  -1   4   42.50    3.10
 -10  -1   4   53.99   10.20
   9   1  -4  212.88   11.00
   9   1  -4  230.68    6.10
  -9  -1   4  230.18   11.20
  -9  -1   4  217.48    5.90
   8   1  -4  100.39    3.30
   8   1  -4   94.09    7.10
  -8  -1   4  110.49    7.30
  -8  -1   4  100.79    3.40
   7   1  -4   34.60    1.60
   7   1  -4   33.20    4.60
  -7  -1   4   29.80    4.30
   6   1  -4   21.10    4.10
  -6  -1   4   19.60    3.20
   5   1  -4 3597.54   59.49
  -5  -1   4 3542.55   58.29
   4   1  -4  120.39    6.00
   4   1  -4  127.29    5.50
  -4  -1   4  119.09    5.80
   3   1  -4   99.99    4.60
   3   1  -4  101.19    5.20
  -3  -1   4   95.39    2.50
  -3  -1   4   94.49    4.50
  -3  -1   4   98.19    2.60
   2   1  -4  512.75    9.50
   2   1  -4  513.45   11.50
   2   1  -4  506.95   11.80
   2   1  -4  528.95   11.40
  -2  -1   4  509.85    9.50
  -2  -1   4  498.85   11.80
  -2  -1   4  507.85   11.30
   1   1  -4 1651.83   27.70
   1   1  -4 1657.33   27.60
   1   1  -4 1635.64   26.70
  -1  -1   4 1641.74   27.80
  -1  -1   4 1685.33   27.70
  -1  -1   4 1645.64   26.80
   0   1  -4   11.50    1.80
   0   1  -4    9.50    1.60
   0   1  -4   10.10    1.70
   0  -1   4    8.10    1.40
   0  -1   4    7.90    1.40
   0  -1   4    8.30    1.50
  -1   1  -4   60.69    3.60
  -1   1  -4   66.09    3.60
  -1   1  -4   58.79    3.00
   1  -1   4   65.99    3.90
   1  -1   4   63.59    3.40
   1  -1   4   64.29    3.10
  -2   1  -4 2856.41   45.50
  -2   1  -4 2762.12   46.50
   2  -1   4 2751.52   45.50
   2  -1   4 2804.52   43.40
   2  -1   4 2831.42   46.70
  -3   1  -4  451.55   12.20
  -3   1  -4  447.66   13.90
  -3   1  -4  462.75   10.30
   3  -1   4  468.45   12.00
   3  -1   4  451.75   12.30
   3  -1   4  453.45   10.20
  -4   1  -4  104.69    4.70
  -4   1  -4  108.69    5.80
   4  -1   4  116.19    6.10
   4  -1   4  111.19    4.90
   4  -1   4  103.09    4.60
  -5   1  -4  135.59    5.90
  -5   1  -4  135.39    7.10
   5  -1   4  140.89    8.60
   5  -1   4  131.09    5.70
  -6   1  -4  354.86   12.60
   6  -1   4  357.76   10.90
   6  -1   4  384.26   13.10
   6  -1   4  359.56   10.70
  -7   1  -4  533.05   16.60
   7  -1   4  533.55   14.60
   7  -1   4  510.75   16.30
  -8   1  -4   14.10    3.70
   8  -1   4   21.60    3.50
   8  -1   4   17.50    3.90
  -9   1  -4   -2.80    2.50
   9  -1   4   -4.60    2.50
   9  -1   4    5.80    2.40
 -10   1  -4  160.08   10.50
  10  -1   4  158.38    9.00
  10  -1   4  144.09    9.90
 -11   1  -4  163.68   11.20
  11  -1   4  162.68   10.40
  11  -1   4  144.49   11.00
  12   0  -4   -2.30    3.00
 -12   0   4    3.00    3.50
  11   0  -4   22.10    2.60
  11   0  -4   16.30    4.60
 -11   0   4   17.00    4.10
  10   0  -4  462.95   10.90
  10   0  -4  474.55   17.70
 -10   0   4  473.45   16.70
 -10   0   4  462.35   11.10
   9   0  -4  153.68    5.40
   9   0  -4  158.08    9.40
  -9   0   4  151.28    5.50
  -9   0   4  157.78    8.80
   8   0  -4   39.40    5.30
  -8   0   4   31.80    4.30
   7   0  -4 1671.23   26.70
   7   0  -4 1667.33   34.10
  -7   0   4 1630.34   32.60
  -7   0   4 1672.33   26.90
   6   0  -4 1327.57   21.50
  -6   0   4 1307.17   21.50
  -6   0   4 1343.97   26.70
  -6   0   4 1331.77   21.70
   5   0  -4  628.24   16.10
   5   0  -4  604.14   14.40
  -5   0   4  602.74   14.50
  -5   0   4  627.34   11.20
  -5   0   4  616.34   11.00
   4   0  -4  119.59    6.00
   4   0  -4  126.59    5.30
  -4   0   4  125.59    5.30
  -4   0   4  115.59    5.70
  -4   0   4  120.69    3.60
  -4   0   4  125.99    3.70
   3   0  -4  885.41   16.90
   3   0  -4  903.11   15.40
   3   0  -4  909.31   19.00
  -3   0   4  887.51   19.00
  -3   0   4  888.51   15.30
  -3   0   4  855.31   16.80
  -3   0   4  910.61   15.50
   2   0  -4 1440.96   25.80
   2   0  -4 1413.66   23.40
   2   0  -4 1414.96   24.30
   2   0  -4 1426.26   23.80
  -2   0   4 1384.66   24.10
  -2   0   4 1441.76   25.70
  -2   0   4 1423.46   23.50
   1   0  -4 5169.58   77.59
   1   0  -4 5083.29   76.49
  -1   0   4 5104.29   77.39
   0   0  -4   13.90    3.00
   0   0  -4    8.30    1.70
   0   0  -4    8.00    1.50
   0   0   4   11.10    1.80
   0   0   4   11.10    1.80
   0   0   4    9.00    1.40
  -2   0  -4 5915.71   88.49
  -2   0  -4 5907.71   87.99
  -2   0  -4 5764.62   89.79
   2   0   4 5846.11   87.99
   2   0   4 5892.01   88.39
  -3   0  -4  171.18    6.20
  -3   0  -4  169.68    8.30
   3   0   4  171.78    7.30
   3   0   4  161.48    6.40
   3   0   4  167.48    6.20
  -4   0  -4  121.59    6.20
   4   0   4  134.69    6.90
   4   0   4  136.69    5.90
  -5   0  -4 1278.47   25.00
  -5   0  -4 1262.17   26.80
   5   0   4 1243.78   27.70
   5   0   4 1265.07   25.40
   5   0   4 1274.17   27.40
  -6   0  -4 1463.85   30.50
  -6   0  -4 1450.65   28.60
   6   0   4 1457.15   29.20
   6   0   4 1413.06   30.70
  -7   0  -4  151.78    8.80
   7   0   4  139.49    8.30
   7   0   4  158.78    8.00
  -8   0  -4    2.40    2.70
   8   0   4    1.60    2.40
   8   0   4   -0.60    2.10
  -9   0  -4 1058.29   28.20
   9   0   4 1045.80   26.10
   9   0   4 1081.39   27.80
 -10   0  -4  185.68   11.30
  10   0   4  174.88   10.70
  10   0   4  179.48   10.30
 -11   0  -4   87.29    8.50
  11   0   4   80.89    7.80
  11   0   4   90.99    8.30
  12  -1  -4  107.39    9.20
  12  -1  -4  108.79    5.50
 -12   1   4  119.29    9.50
  11  -1  -4   90.19    8.40
  11  -1  -4   81.99    4.70
 -11   1   4   83.19    7.60
  10  -1  -4    0.20    2.50
 -10   1   4    0.70    2.40
   9  -1  -4  290.27    8.50
   9  -1  -4  320.57   13.00
  -9   1   4  242.58   11.10
  -9   1   4  295.17   12.10
   8  -1  -4  623.64   13.60
   8  -1  -4  640.34   18.60
  -8   1   4  618.34   13.60
  -8   1   4  651.53   17.70
   7  -1  -4   96.09    6.70
   7  -1  -4   99.49    4.30
  -7   1   4   91.59    6.10
  -7   1   4   92.29    4.20
   6  -1  -4  591.54   18.50
   6  -1  -4  600.14   12.30
  -6   1   4  582.44   12.20
  -6   1   4  590.94   12.40
  -6   1   4  597.24   14.80
   5  -1  -4 1465.05   28.70
   5  -1  -4 1412.26   24.50
   5  -1  -4 1404.06   26.20
  -5   1   4 1430.26   24.30
  -5   1   4 1441.96   24.20
  -5   1   4 1438.56   28.70
   4  -1  -4  334.67    8.80
   4  -1  -4  341.07   10.60
  -4   1   4  336.87   10.40
  -4   1   4  342.97    8.10
  -4   1   4  348.37    8.50
  -4   1   4  340.67    8.80
   3  -1  -4 1120.49   19.70
  -3   1   4 1149.19   20.10
  -3   1   4 1126.39   19.90
  -3   1   4 1156.58   22.50
  -3   1   4 1094.19   21.20
   2  -1  -4  223.48    6.60
   2  -1  -4  237.48    7.90
   2  -1  -4  226.68    5.60
   2  -1  -4  232.78    6.50
  -2   1   4  238.08    5.80
  -2   1   4  232.58    6.80
  -2   1   4  225.18    6.60
   1  -1  -4   84.69    3.10
   1  -1  -4   83.29    4.40
   1  -1  -4   82.99    3.10
   1  -1  -4   90.29    4.20
  -1   1   4   79.39    4.30
  -1   1   4   86.69    4.10
   0  -1  -4  221.48    7.20
   0  -1  -4  222.18    5.80
   0  -1  -4  234.18    7.40
   0   1   4  227.38    5.70
   0   1   4  251.57    7.80
   0   1   4  212.68    7.10
  -1  -1  -4 4566.04   68.59
  -1  -1  -4 4548.25   71.19
  -1  -1  -4 4635.74   70.49
   1   1   4 4496.45   68.39
   1   1   4 4535.45   70.69
  -2  -1  -4   -0.60    1.10
  -2  -1  -4    0.50    1.40
  -2  -1  -4   -2.00    1.00
   2   1   4    0.60    1.40
   2   1   4    0.10    1.30
   2   1   4    4.00    1.50
  -3  -1  -4   -1.90    1.30
   3   1   4   -1.40    1.00
   3   1   4   -0.20    1.20
   3   1   4    1.40    1.40
  -4  -1  -4 1269.27   25.10
  -4  -1  -4 1250.37   25.10
   4   1   4 1261.77   26.70
  -5  -1  -4  502.85   16.70
  -5  -1  -4  467.85   13.50
   5   1   4  471.75   14.60
   5   1   4  456.95   13.70
  -6  -1  -4  202.88    9.40
  -6  -1  -4  188.58    8.70
   6   1   4  199.48    9.00
   6   1   4  195.78    9.70
  -7  -1  -4  193.98    9.20
  -7  -1  -4  183.88    9.70
   7   1   4  198.38   10.00
   7   1   4  197.18    9.50
  -8  -1  -4  252.57   11.90
   8   1   4  266.17   11.70
   8   1   4  254.97   12.00
  -9  -1  -4  365.26   15.20
   9   1   4  376.56   14.90
   9   1   4  358.56   17.70
 -10  -1  -4   20.20    4.60
  10   1   4   19.30    4.10
  10   1   4   20.40    4.50
 -11  -1  -4   28.20    5.50
  11   1   4   22.30    5.40
  11   1   4   20.60    4.70
  12  -2  -4  229.78   12.90
  12  -2  -4  194.28   12.10
 -12   2   4  226.48   12.20
  11  -2  -4  255.97   13.00
  11  -2  -4  257.97    9.20
 -11   2   4  264.17   12.50
  10  -2  -4   27.30    4.90
  10  -2  -4   31.20    3.50
 -10   2   4   32.20    4.80
   9  -2  -4  228.58    8.10
   9  -2  -4  243.88   11.50
  -9   2   4  245.68   10.70
  -9   2   4  224.28    8.10
   8  -2  -4 1039.90   25.40
  -8   2   4 1080.49   24.10
  -8   2   4 1015.00   20.70
   7  -2  -4  686.03   15.10
   7  -2  -4  656.13   18.30
  -7   2   4  691.63   17.00
   6  -2  -4   63.59    3.90
   6  -2  -4   54.99    4.10
  -6   2   4   58.49    3.70
  -6   2   4   61.09    3.90
  -6   2   4   58.99    4.20
   5  -2  -4 1190.98   22.30
   5  -2  -4 1176.28   22.10
   5  -2  -4 1222.28   25.40
  -5   2   4 1185.58   22.10
  -5   2   4 1180.98   22.20
  -5   2   4 1209.28   22.30
   4  -2  -4 2637.04   41.40
   4  -2  -4 2690.13   45.50
   4  -2  -4 2627.74   42.60
  -4   2   4 2665.53   42.80
  -4   2   4 2547.15   41.20
  -4   2   4 2579.54   42.30
   3  -2  -4  316.17    9.90
   3  -2  -4  304.87    6.90
  -3   2   4  316.07    8.80
  -3   2   4  302.47    6.90
  -3   2   4  307.37    8.50
  -3   2   4  306.67    9.60
   2  -2  -4   65.99    2.40
   2  -2  -4   71.19    2.50
   2  -2  -4   68.59    4.50
   2  -2  -4   69.59    4.00
  -2   2   4   62.59    4.30
  -2   2   4   68.69    3.90
  -2   2   4   62.69    3.80
   1  -2  -4 1818.72   27.60
   1  -2  -4 1774.32   34.70
   1  -2  -4 1881.21   28.90
  -1   2   4 1839.42   32.30
  -1   2   4 1811.12   32.30
   0  -2  -4 1242.78   24.30
   0  -2  -4 1287.37   20.60
   0  -2  -4 1318.27   31.20
   0   2   4 1228.48   24.10
   0   2   4 1263.37   20.40
  -1  -2  -4 1484.45   28.40
  -1  -2  -4 1521.65   28.10
   1   2   4 1529.75   28.80
   1   2   4 1476.35   26.20
   1   2   4 1500.75   28.00
  -2  -2  -4    1.50    1.30
  -2  -2  -4    1.30    1.20
   2   2   4   -1.00    1.40
   2   2   4    1.50    1.60
   2   2   4   -0.30    1.10
  -3  -2  -4  531.65   14.00
   3   2   4  516.45   12.80
   3   2   4  515.05   14.60
  -4  -2  -4 1051.19   22.20
  -4  -2  -4 1021.30   22.80
   4   2   4 1079.69   24.30
  -5  -2  -4  414.76   15.30
  -5  -2  -4  400.06   13.10
   5   2   4  412.86   13.60
   5   2   4  398.96   13.80
  -6  -2  -4  170.18    8.60
  -6  -2  -4  167.68    8.50
   6   2   4  175.18    9.00
   6   2   4  172.58    9.30
  -7  -2  -4  168.18    9.50
  -7  -2  -4  169.18    9.10
   7   2   4  172.58    9.70
   7   2   4  169.58    9.40
  -8  -2  -4 1624.54   36.70
   8   2   4 1653.33   37.00
   8   2   4 1690.83   37.40
  -9  -2  -4   23.90    4.60
   9   2   4   13.70    4.00
   9   2   4   15.40    4.20
 -10  -2  -4   23.70    5.30
  10   2   4   27.80    5.30
  10   2   4   21.10    5.10
  12  -3  -4   32.70    5.90
  12  -3  -4   23.50    3.70
 -12   3   4   35.60    5.70
  11  -3  -4   12.00    3.00
  11  -3  -4   12.30    4.20
  10  -3  -4   63.29    4.90
  10  -3  -4   64.29    6.60
 -10   3   4   66.49    6.20
   9  -3  -4  803.22   22.40
   9  -3  -4  804.82   18.70
  -9   3   4  810.82   20.90
   8  -3  -4   61.29    5.90
   8  -3  -4   69.39    4.80
  -8   3   4   60.49    5.20
   7  -3  -4   39.10    4.70
   7  -3  -4   31.90    3.50
  -7   3   4   36.30    3.90
  -7   3   4   35.90    3.60
  -7   3   4   33.00    3.70
   6  -3  -4 1017.50   23.50
   6  -3  -4  976.10   20.00
   6  -3  -4 1014.20   20.80
  -6   3   4 1005.70   20.90
  -6   3   4  960.60   20.30
   5  -3  -4  404.56   12.60
   5  -3  -4  374.06    9.50
   5  -3  -4  384.66   11.20
  -5   3   4  375.26   10.60
  -5   3   4  398.26   11.00
  -5   3   4  370.46    9.40
   4  -3  -4  138.19    7.40
   4  -3  -4  136.19    4.50
   4  -3  -4  137.19    6.90
  -4   3   4  141.59    6.40
  -4   3   4  127.29    5.70
  -4   3   4  143.69    4.60
   3  -3  -4   -0.30    0.60
   3  -3  -4    1.20    1.50
  -3   3   4    0.50    1.20
  -3   3   4    0.30    1.40
  -3   3   4    0.70    0.60
   2  -3  -4  348.57   10.80
   2  -3  -4  354.46   10.30
  -2   3   4  329.17    9.90
  -2   3   4  363.16   10.60
   1  -3  -4  480.05   12.80
   1  -3  -4  452.75   12.40
  -1   3   4  465.05   12.80
  -1   3   4  462.25   12.30
   0  -3  -4   73.89    4.90
   0  -3  -4   80.99    2.70
   0   3   4   77.39    4.90
   0   3   4   70.89    2.50
  -1  -3  -4  626.94   15.50
   1   3   4  595.04   15.60
   1   3   4  591.84   11.80
  -2  -3  -4    1.60    1.20
  -2  -3  -4    3.30    1.80
   2   3   4    4.30    2.00
   2   3   4    1.60    1.20
  -3  -3  -4  947.01   22.00
  -3  -3  -4  925.91   24.90
   3   3   4  956.20   22.40
   3   3   4  966.90   19.60
  -4  -3  -4    6.20    2.20
  -4  -3  -4    7.50    2.40
   4   3   4    5.90    2.60
  -5  -3  -4   34.00    4.60
  -5  -3  -4   30.40    4.10
   5   3   4   37.00    5.00
   5   3   4   39.10    4.80
  -6  -3  -4  423.66   14.20
  -6  -3  -4  384.36   14.20
   6   3   4  442.06   15.50
   6   3   4  421.86   15.20
  -7  -3  -4  118.89    8.30
  -7  -3  -4  136.99    8.70
   7   3   4  127.59    8.90
   7   3   4  132.39    8.80
  -8  -3  -4  205.18   17.00
  -8  -3  -4  223.18   13.50
   8   3   4  191.08   11.60
  -9  -3  -4    1.40    2.70
   9   3   4    4.50    3.40
   9   3   4    4.00    3.40
 -10  -3  -4  108.59    9.30
  10   3   4  111.19    9.90
  10   3   4  111.19    9.30
  12  -4  -4   74.29    8.20
  12  -4  -4   66.99    5.80
 -12   4   4   76.49    7.70
  11  -4  -4   64.29    7.20
  11  -4  -4   42.00    4.80
 -11   4   4   62.79    6.50
  10  -4  -4  540.95   15.60
  10  -4  -4  571.04   19.10
 -10   4   4  545.35   17.00
   9  -4  -4  372.26   14.60
   9  -4  -4  380.16   12.50
  -9   4   4  420.26   13.60
   8  -4  -4   26.60    4.50
   8  -4  -4   27.70    4.70
  -8   4   4   29.80    4.60
   7  -4  -4  348.47   11.50
   7  -4  -4  348.57   12.80
  -7   4   4  352.26   10.60
  -7   4   4  349.27   11.60
   6  -4  -4  568.94   15.10
   6  -4  -4  540.05   16.10
  -6   4   4  564.44   13.10
  -6   4   4  563.34   15.20
   5  -4  -4 1181.58   26.50
   5  -4  -4 1202.48   24.60
   5  -4  -4 1175.58   21.00
  -5   4   4 1183.88   24.70
  -5   4   4 1157.08   20.80
   4  -4  -4   10.80    2.60
   4  -4  -4   12.40    2.60
   4  -4  -4    9.40    1.30
  -4   4   4   12.30    2.60
  -4   4   4   10.80    1.30
   3  -4  -4  518.35   14.50
  -3   4   4  519.15   14.10
   2  -4  -4 4238.28   69.39
  -2   4   4 4276.97   69.29
   1  -4  -4 1122.19   23.90
  -1   4   4 1113.79   24.00
   0  -4  -4   10.20    1.10
   0  -4  -4    4.90    2.10
   0   4   4    8.10    2.30
  -1  -4  -4 1032.00   26.10
   1   4   4  976.90   26.30
   1   4   4 1027.90   17.90
  -2  -4  -4  683.23   17.90
  -2  -4  -4  677.93   14.40
   2   4   4  672.93   14.40
   2   4   4  704.23   18.60
  -3  -4  -4  345.47   10.10
  -3  -4  -4  337.17   12.20
   3   4   4  350.96   12.80
   3   4   4  324.97    9.90
  -4  -4  -4    4.60    2.60
  -4  -4  -4    2.90    2.10
   4   4   4    9.80    3.00
  -5  -4  -4 1236.18   26.70
  -5  -4  -4 1208.48   28.50
   5   4   4 1207.58   29.00
   5   4   4 1251.87   29.70
  -6  -4  -4  551.14   16.70
  -6  -4  -4  513.85   17.40
   6   4   4  547.65   18.50
   6   4   4  523.95   17.90
  -7  -4  -4  142.69    8.80
  -7  -4  -4  147.69    9.70
   7   4   4  150.48   10.00
   7   4   4  151.08   10.40
  -8  -4  -4   11.90    3.70
  -8  -4  -4    6.80    3.10
   8   4   4    8.60    3.60
   8   4   4   10.10    4.20
  -9  -4  -4   19.20    4.60
   9   4   4   13.90    4.70
   9   4   4   18.80    4.50
  12  -5  -4   99.89    7.20
  12  -5  -4  104.19    9.10
 -12   5   4  117.79    8.70
  11  -5  -4   41.40    5.10
  11  -5  -4   40.80    5.90
 -11   5   4   46.10    5.60
  10  -5  -4  185.98   10.70
  10  -5  -4  178.48    9.10
 -10   5   4  178.08    9.10
 -10   5   4  166.68    9.10
   9  -5  -4  205.48   11.00
   9  -5  -4  213.28    9.70
  -9   5   4  211.68   10.00
  -9   5   4  204.28    9.10
   8  -5  -4  276.97   12.10
   8  -5  -4  294.67   11.30
  -8   5   4  301.07   11.70
  -8   5   4  299.17   10.30
   7  -5  -4  875.51   21.30
   7  -5  -4  876.71   22.80
   7  -5  -4  843.42   18.70
  -7   5   4  851.61   19.60
  -7   5   4  874.21   21.60
   6  -5  -4   16.90    3.20
   6  -5  -4   19.30    2.50
   6  -5  -4   19.90    3.80
  -6   5   4   17.60    3.40
  -6   5   4   13.80    2.20
   5  -5  -4   70.59    3.40
   5  -5  -4   66.69    5.90
   5  -5  -4   82.09    6.00
  -5   5   4   70.09    4.20
  -5   5   4   69.59    5.50
   4  -5  -4  345.57   12.10
   4  -5  -4  302.07    6.80
   4  -5  -4  331.17   13.70
  -4   5   4  325.47   11.80
  -4   5   4  307.07    5.50
   3  -5  -4 1086.59   24.20
  -3   5   4 1047.80   24.50
   2  -5  -4  270.57   10.40
  -2   5   4  266.47   10.40
   1  -5  -4    2.70    2.10
  -1   5   4    4.30    2.00
   0  -5  -4 1789.52   26.60
   0  -5  -4 1745.93   34.90
   0   5   4 1798.12   35.60
  -1  -5  -4  510.25   15.40
   1   5   4  524.25   10.70
   1   5   4  513.25   15.90
  -2  -5  -4   15.60    2.30
  -2  -5  -4   13.20    3.40
   2   5   4   23.30    4.00
   2   5   4   14.60    2.20
  -3  -5  -4  133.69    6.20
  -3  -5  -4  123.69    7.80
   3   5   4  149.69    8.60
   3   5   4  136.59    6.40
  -4  -5  -4  189.58    9.80
  -4  -5  -4  173.98    7.90
   4   5   4  184.88    9.90
  -5  -5  -4  529.95   17.80
  -5  -5  -4  548.65   15.80
   5   5   4  559.84   19.00
   5   5   4  551.34   18.40
  -6  -5  -4  140.89    9.40
  -6  -5  -4  140.99    8.30
   6   5   4  145.49    9.80
   6   5   4  138.49    9.50
  -7  -5  -4   23.50    5.10
  -7  -5  -4   15.70    3.80
   7   5   4   17.80    4.80
   7   5   4   15.40    4.20
  -8  -5  -4  138.39   10.20
  -8  -5  -4  162.98   10.30
   8   5   4  168.08   11.00
   8   5   4  171.98   11.20
  12  -6  -4   21.00    4.90
  12  -6  -4   11.00    4.40
 -12   6   4   21.10    4.90
 -12   6   4   25.80    4.90
  11  -6  -4  211.48   10.50
  11  -6  -4  223.48   12.20
 -11   6   4  207.28   11.10
 -11   6   4  219.38   10.70
  10  -6  -4    5.10    2.70
 -10   6   4    4.20    3.00
 -10   6   4   -1.70    2.20
   9  -6  -4  116.39    7.70
   9  -6  -4  113.99    8.50
  -9   6   4  107.59    6.50
  -9   6   4  113.49    8.00
   8  -6  -4  410.36   15.20
   8  -6  -4  417.36   14.60
  -8   6   4  396.26   11.80
  -8   6   4  408.36   14.80
   7  -6  -4  432.66   15.30
   7  -6  -4  418.56   11.30
   7  -6  -4  427.36   14.60
  -7   6   4  445.86   15.10
   6  -6  -4   54.99    5.60
   6  -6  -4   51.49    3.30
   6  -6  -4   50.19    5.30
  -6   6   4   57.09    5.60
  -6   6   4   57.49    3.40
   5  -6  -4  676.33   19.00
   5  -6  -4  646.34   11.90
   5  -6  -4  696.63   19.00
  -5   6   4  658.03   11.80
  -5   6   4  710.03   19.30
   4  -6  -4  637.04   18.10
   4  -6  -4  634.94   18.10
  -4   6   4  661.23   18.60
   3  -6  -4 1130.69   26.10
  -3   6   4 1176.28   26.90
   2  -6  -4   -1.40    1.90
  -2   6   4   -0.10    2.40
   1  -6  -4  215.08    9.80
  -1   6   4  217.78   10.20
   0  -6  -4  980.60   23.80
   0   6   4  946.21   24.00
  -1  -6  -4  342.67   13.00
   1   6   4  362.46    8.30
   1   6   4  353.96   13.50
  -2  -6  -4   26.60    4.30
  -2  -6  -4   36.60    3.10
   2   6   4   26.70    3.40
   2   6   4   28.10    4.70
  -3  -6  -4  168.78    7.00
  -3  -6  -4  163.58    9.40
   3   6   4  175.08    9.90
  -4  -6  -4  950.90   29.70
  -4  -6  -4  969.90   25.80
   4   6   4  959.40   25.90
  -5  -6  -4  234.88    9.90
  -5  -6  -4  229.78   12.00
   5   6   4  240.88   13.00
  -6  -6  -4   -0.70    2.10
  -6  -6  -4    0.30    2.70
   6   6   4    2.80    3.60
   6   6   4   -0.90    2.60
  -7  -6  -4  253.17   18.20
  -7  -6  -4  259.77   13.60
   7   6   4  232.88   13.70
   7   6   4  242.68   12.80
  -8  -6  -4  240.48   15.50
  -8  -6  -4  222.28   12.00
   8   6   4  218.18   12.60
   8   6   4  249.97   16.70
  11  -7  -4   12.40    3.80
  11  -7  -4   12.20    4.60
 -11   7   4   13.40    4.40
 -11   7   4   17.60    3.80
  10  -7  -4  285.37   13.70
 -10   7   4  271.77   10.90
   9  -7  -4  102.89    8.30
   9  -7  -4  102.39    7.80
  -9   7   4   90.99    7.90
  -9   7   4  119.99    7.70
   8  -7  -4   32.30    5.10
   8  -7  -4   37.50    5.40
  -8   7   4   42.40    3.80
  -8   7   4   32.20    5.40
   7  -7  -4    4.20    3.20
   7  -7  -4   -4.40    2.50
   7  -7  -4    7.20    2.50
  -7   7   4    3.40    1.50
  -7   7   4    0.50    2.20
   6  -7  -4   31.60    5.10
   6  -7  -4   31.60    2.50
   6  -7  -4   31.00    4.70
  -6   7   4   23.60    4.60
   5  -7  -4  858.71   22.80
   5  -7  -4  821.42   22.60
  -5   7   4  882.41   23.40
   4  -7  -4  184.88    9.70
  -4   7   4  180.18    9.80
   3  -7  -4  320.77   12.50
  -3   7   4  323.27   13.20
   2  -7  -4   60.39    6.00
  -2   7   4   63.39    6.00
   1  -7  -4  245.18   11.10
  -1   7   4  245.18   11.50
   0  -7  -4   58.99    5.90
   0   7   4   59.79    6.30
  -1  -7  -4   77.59    6.60
   1   7   4   77.69    3.70
   1   7   4   79.79    6.80
  -2  -7  -4  144.99    9.00
  -2  -7  -4  147.99    5.80
   2   7   4  127.09    8.80
  -3  -7  -4  366.96   10.90
  -3  -7  -4  371.86   17.50
   3   7   4  410.16   18.60
  -4  -7  -4   36.90    4.10
  -4  -7  -4   35.80    5.60
   4   7   4   32.90    5.40
  -5  -7  -4   28.40    5.60
  -5  -7  -4   39.70    4.50
   5   7   4   25.90    5.50
   5   7   4   29.50    5.40
  -6  -7  -4  101.49    7.60
  -6  -7  -4  142.29   10.10
   6   7   4  112.19    9.70
   6   7   4  107.79    9.40
  -7  -7  -4   82.79    7.50
   7   7   4   85.29    8.50
  10  -8  -4  139.79    9.90
  10  -8  -4  136.79    9.50
 -10   8   4  117.89    9.20
 -10   8   4  128.09    7.20
   9  -8  -4  245.48   12.50
   9  -8  -4  263.07   13.00
  -9   8   4  253.67   13.10
  -9   8   4  239.98    9.00
   8  -8  -4   14.40    4.10
   8  -8  -4   16.90    5.30
  -8   8   4   19.00    4.40
  -8   8   4   20.30    3.40
   7  -8  -4   40.80    3.20
   7  -8  -4   35.30    5.30
   7  -8  -4   46.80    6.80
  -7   8   4   43.20    2.90
   6  -8  -4  360.16   14.30
   6  -8  -4  347.47   14.40
  -6   8   4  355.06   14.90
   5  -8  -4  200.38   10.70
   5  -8  -4  196.18   10.60
  -5   8   4  212.68   11.20
   4  -8  -4   90.19    7.10
  -4   8   4   73.09    6.90
   3  -8  -4   58.59    6.20
  -3   8   4   66.29    6.60
   2  -8  -4  387.66   14.70
  -2   8   4  390.56   15.40
   1  -8  -4  271.37   12.30
  -1   8   4  276.07   12.90
   0  -8  -4   54.39    6.20
   0   8   4   51.89    6.20
  -1  -8  -4  216.28   13.90
   1   8   4  191.48    5.60
   1   8   4  222.48   14.40
  -2  -8  -4  532.95   18.80
   2   8   4  515.65   18.90
  -3  -8  -4  181.08    7.40
  -3  -8  -4  169.28   10.80
   3   8   4  188.58   11.40
  -4  -8  -4    4.30    2.30
  -4  -8  -4    4.60    3.10
   4   8   4    9.90    4.00
   4   8   4    3.90    3.30
  -5  -8  -4   75.39    7.60
  -5  -8  -4   75.99    6.60
   5   8   4   83.89    8.50
   5   8   4   93.99    9.00
  -6  -8  -4  170.88   13.90
  -6  -8  -4  210.58   10.40
   6   8   4  189.08   12.00
   6   8   4  171.38   14.60
  10  -9  -4   24.80    5.50
 -10   9   4   14.80    4.90
   9  -9  -4   70.29    7.30
   9  -9  -4   58.09    7.20
  -9   9   4   73.89    8.20
   8  -9  -4  191.48   11.10
   8  -9  -4  185.28   11.30
  -8   9   4  183.08   11.70
   7  -9  -4  204.08   11.70
   7  -9  -4  205.98   11.30
  -7   9   4  182.28   11.50
   6  -9  -4   51.19    6.30
  -6   9   4   40.70    6.00
   5  -9  -4    7.80    3.80
  -5   9   4    9.20    3.80
   4  -9  -4  335.57   16.30
  -4   9   4  355.76   15.40
  -3   9   4  182.58   11.40
   2  -9  -4  141.49   10.80
  -2   9   4  141.09    9.90
   1  -9  -4   71.59    7.00
  -1   9   4   76.59    7.50
   0  -9  -4  315.07   13.90
   0   9   4  280.97   14.10
  -1  -9  -4   16.40    4.40
   1   9   4    9.40    1.50
   1   9   4   12.10    3.80
  -2  -9  -4  239.48   12.80
   2   9   4  227.48    8.60
   2   9   4  240.58   13.20
  -3  -9  -4    9.90    4.00
  -3  -9  -4   10.50    2.70
   3   9   4   15.10    4.70
  -4  -9  -4  142.09   10.10
  -4  -9  -4  129.09    7.20
   4   9   4  129.19   10.20
   4   9   4  128.89   10.70
   8 -10  -4  172.58   11.20
   8 -10  -4  165.78   11.40
  -8  10   4  186.28   12.30
   7 -10  -4  194.78   11.20
   7 -10  -4  177.68   11.20
  -7  10   4  214.48   13.00
   6 -10  -4    5.40    3.40
  -6  10   4    2.20    3.30
   5 -10  -4  103.19    8.30
  -5  10   4  112.79    9.40
   4 -10  -4  290.17   13.60
  -4  10   4  287.77   14.40
   3 -10  -4  280.77   13.30
  -3  10   4  275.17   14.30
   2 -10  -4   -0.10    2.70
  -2  10   4    3.60    3.10
   1 -10  -4   98.89    8.60
  -1  10   4   70.79    7.90
   0 -10  -4  308.57   14.40
   0  10   4  274.67   14.70
  -1 -10  -4   26.80    5.10
   1  10   4   27.80    5.60
  -2 -10  -4   12.10    4.10
   2  10   4   11.80    3.40
   3  10   4   17.00    5.70
   6 -11  -4  107.39    9.10
  -6  11   4   96.89    9.70
   5 -11  -4  249.88   13.10
  -5  11   4  240.88   13.90
   4 -11  -4   43.70    6.70
  -4  11   4   47.30    7.50
   3 -11  -4   14.30    3.80
  -3  11   4    9.60    4.10
   2 -11  -4  137.09   10.10
  -2  11   4  130.49   10.40
   1 -11  -4  134.59   10.10
  -1  11   4  130.29   10.60
   0 -11  -4   11.20    4.10
   1  13  -5   94.69    7.90
   1  13  -5   91.49    8.30
   1  13  -5   96.19    8.50
  -1 -13   5   95.79    8.60
   0  13  -5  134.79   10.10
   0  13  -5  139.59    9.80
   0  13  -5  144.69    8.80
   0 -13   5  144.39    9.70
  -1  13  -5    4.60    3.20
  -1  13  -5   -0.40    3.00
  -1  13  -5   -0.80    2.50
   1 -13   5    1.50    3.10
  -2  13  -5   94.99    8.50
  -2  13  -5   82.79    6.10
  -2  13  -5   87.59    8.70
   2 -13   5   88.19    8.60
  -3  13  -5  298.17   14.10
  -3  13  -5  267.67   14.40
   3 -13   5  299.77   14.70
  -4  13  -5   42.90    6.60
   4 -13   5   56.99    7.60
  -5  13  -5   -4.20    2.80
   5 -13   5    1.50    3.20
   4  12  -5   -4.10    2.70
   4  12  -5   -6.80    2.60
   4  12  -5   -1.30    2.70
  -4 -12   5   -4.40    2.80
   3  12  -5  100.69    8.30
   3  12  -5  107.49    9.10
   3  12  -5  103.59    8.40
   2  12  -5  331.77   21.50
   2  12  -5  360.16   15.40
   1  12  -5   72.19    7.80
   1  12  -5   83.29    8.40
   1  12  -5   63.69   10.30
  -1 -12   5   84.09    9.10
   0  12  -5    8.40    3.60
   0  12  -5   12.40    3.20
   0  12  -5   10.50    3.40
   0 -12   5    9.30    3.80
  -1  12  -5  464.85   14.30
  -1  12  -5  417.56   16.90
   1 -12   5  435.56   16.90
  -2  12  -5  398.66   12.40
   2 -12   5  391.96   16.10
  -3  12  -5   68.89    8.30
  -3  12  -5   61.39    4.20
   3 -12   5   58.39    6.70
  -4  12  -5   62.49    7.20
   4 -12   5   71.99    7.20
  -5  12  -5  279.37   13.60
   5 -12   5  269.17   14.00
  -6  12  -5  308.97   14.60
   6 -12   5  282.87   14.50
  -7  12  -5   54.79    7.30
   7 -12   5   71.09   13.50
   5  11  -5   15.40    4.50
   5  11  -5   10.20    3.30
   5  11  -5   12.10    4.50
  -5 -11   5   19.30    5.00
   4  11  -5    4.40    2.90
   4  11  -5    9.30    3.60
   4  11  -5    2.00    3.10
  -4 -11   5    3.30    2.70
   3  11  -5  138.79    9.30
   3  11  -5  149.09   13.90
   3  11  -5  130.69    8.30
  -3 -11   5  124.39    8.90
   2  11  -5  191.28   10.00
   2  11  -5  171.98   15.30
   2  11  -5  191.98   10.20
  -2 -11   5  189.18    9.80
   1  11  -5   11.70    3.40
   1  11  -5    8.30    3.30
   1  11  -5    8.10    3.00
  -1 -11   5   14.40    3.50
   0  11  -5   66.99    5.50
   0  11  -5   58.59    6.40
   0  11  -5   64.09    6.60
   0 -11   5   66.89    6.60
  -1  11  -5  183.88    9.60
  -1  11  -5  192.78   10.30
   1 -11   5  188.48   10.20
  -2  11  -5  211.18   11.00
  -2  11  -5  209.68    8.00
   2 -11   5  226.38   13.10
  -3  11  -5    4.80    1.60
  -3  11  -5    3.30    2.80
   3 -11   5    5.00    3.00
  -4  11  -5   69.59    4.10
  -4  11  -5   88.39    7.70
   4 -11   5   94.59    7.70
   5 -11   5  274.87   13.40
  -6  11  -5  132.39    9.30
   6 -11   5  142.79   10.00
  -7  11  -5    2.40    3.30
   7 -11   5    9.40    4.10
  -8  11  -5  132.59   10.20
   8 -11   5  122.29   10.20
   7  10  -5  167.08   11.20
   7  10  -5  149.88   10.90
  -7 -10   5  147.99   10.70
   6  10  -5    6.70    3.90
   6  10  -5   -0.60    2.20
   6  10  -5    7.70    3.80
  -6 -10   5    8.60    3.60
   5  10  -5  183.08   11.20
   5  10  -5  177.28    8.60
   5  10  -5  185.08   11.20
  -5 -10   5  198.48   11.30
   4  10  -5  554.84   19.20
   4  10  -5  521.75   15.70
   4  10  -5  530.75   21.50
  -4 -10   5  552.14   18.80
   3  10  -5  204.28   11.10
   3  10  -5  209.58   10.50
   3  10  -5  213.98    9.70
  -3 -10   5  205.18   11.00
   2  10  -5   49.40    5.40
   2  10  -5   45.80    5.00
   2  10  -5   52.39    5.80
  -2 -10   5   49.99    5.40
   1  10  -5  317.77   13.20
   1  10  -5  330.77   11.90
   1  10  -5  338.87   13.00
  -1 -10   5  317.87   12.50
   0  10  -5  924.01   24.30
   0  10  -5  951.90   24.60
   0 -10   5  952.30   23.90
  -1  10  -5  152.38    9.00
  -1  10  -5  146.89    6.80
   1 -10   5  142.19    8.50
  -2  10  -5   13.00    3.50
  -2  10  -5    9.60    3.10
  -2  10  -5    6.00    2.00
   2 -10   5   11.00    3.40
  -3  10  -5  262.67   11.70
  -3  10  -5  234.08    6.70
  -3  10  -5  243.78    6.90
   3 -10   5  262.67   12.00
  -4  10  -5 1449.26   32.80
   4 -10   5 1371.06   33.10
  -5  10  -5  177.18   10.30
   5 -10   5  167.28   10.30
   6 -10   5   19.90    4.50
  -7  10  -5  463.35   17.40
   7 -10   5  446.86   18.00
  -8  10  -5  488.05   18.70
   8 -10   5  478.65   19.20
  -9  10  -5  123.89    9.80
   9 -10   5  104.49    8.90
   8   9  -5   29.60    6.00
  -8  -9   5   29.80    5.70
   7   9  -5    7.20    3.50
   7   9  -5    1.70    1.70
  -7  -9   5   -0.10    3.30
   6   9  -5    7.60    2.40
   6   9  -5    9.30    3.60
   6   9  -5    5.20    3.30
  -6  -9   5    3.90    3.20
   5   9  -5  111.29    6.30
   5   9  -5  114.49    8.70
  -5  -9   5  113.19    8.60
   4   9  -5  117.59    6.60
   4   9  -5  114.99    8.40
   4   9  -5  109.69    8.10
  -4  -9   5  123.09    8.60
   3   9  -5   14.40    3.70
   3   9  -5   11.60    3.10
  -3  -9   5   19.50    3.90
   2   9  -5  383.06   12.70
   2   9  -5  378.06   13.00
   2   9  -5  377.56   14.30
  -2  -9   5  363.16   12.30
  -2  -9   5  359.56   13.60
   1   9  -5  520.25   15.80
   1   9  -5  560.44   17.30
  -1  -9   5  526.65   15.70
   0   9  -5   70.59    4.80
   0   9  -5   64.39    6.00
   0  -9   5   68.69    5.80
  -1   9  -5    5.10    2.70
  -1   9  -5    1.30    1.40
   1  -9   5    3.20    2.30
  -2   9  -5   69.79    6.40
  -2   9  -5   64.89    3.80
  -2   9  -5   75.29    4.00
   2  -9   5   67.59    5.80
  -3   9  -5  500.15    9.70
  -3   9  -5  485.25    9.60
  -3   9  -5  512.85   16.40
   3  -9   5  502.35   16.50
  -4   9  -5  581.34   18.10
   4  -9   5  564.94   18.20
  -5   9  -5   35.90    5.20
   5  -9   5   33.10    5.20
  -6   9  -5  472.65   17.10
   6  -9   5  456.25   19.70
  -7   9  -5  320.17   17.10
   7  -9   5  291.07   13.80
  -8   9  -5  142.39   10.10
   8  -9   5  144.29   10.30
  -9   9  -5    5.60    3.80
   9  -9   5    4.90    2.90
 -10   9  -5   20.70    5.30
  10  -9   5   21.80    5.60
  -9  -8   5  158.08   17.20
   8   8  -5    4.10    3.20
  -8  -8   5    7.30    3.40
   7   8  -5  346.57   15.50
  -7  -8   5  356.36   15.40
   6   8  -5  288.27    8.90
   6   8  -5  316.07   16.60
  -6  -8   5  304.67   13.90
   5   8  -5  110.39    5.60
   5   8  -5   99.99    5.30
   5   8  -5  107.99    8.10
  -5  -8   5  116.49    8.50
   4   8  -5   32.20    5.20
   4   8  -5   27.60    3.40
   4   8  -5   29.90    4.50
  -4  -8   5   34.10    5.10
   3   8  -5  289.47    9.90
   3   8  -5  307.87   11.80
   3   8  -5  282.97   12.00
  -3  -8   5  290.67   11.90
  -3  -8   5  297.47    9.80
   2   8  -5  721.43   20.10
   2   8  -5  797.82   22.40
   2   8  -5  755.42   18.30
  -2  -8   5  728.73   20.00
  -2  -8   5  740.13   17.90
   1   8  -5  869.01   19.70
   1   8  -5  870.31   22.10
  -1  -8   5  855.41   20.10
   0   8  -5   65.39    4.40
   0   8  -5   76.99    5.20
   0   8  -5   70.99    5.90
  -1   8  -5  721.03   19.40
  -1   8  -5  717.83   14.90
  -1   8  -5  724.43   15.20
   1  -8   5  709.13   18.50
  -2   8  -5  917.11   22.80
  -2   8  -5  914.91   16.50
   2  -8   5  936.01   22.60
  -3   8  -5  931.41   23.30
   3  -8   5  946.01   23.40
  -4   8  -5  372.56   13.70
   4  -8   5  365.96   13.80
  -5   8  -5  362.06   13.80
   5  -8   5  369.36   14.30
  -6   8  -5  814.02   23.10
   6  -8   5  880.51   24.20
  -7   8  -5  188.38   10.60
   7  -8   5  189.18   11.20
  -8   8  -5    4.30    3.30
   8  -8   5   13.10    3.60
  -9   8  -5  303.67   14.50
   9  -8   5  296.77   14.70
 -10   8  -5  257.87   13.80
  10  -8   5  284.77   14.60
   9   7  -5   -2.70    2.80
  -9  -7   5    1.30    3.00
   8   7  -5    3.80    3.20
  -8  -7   5    6.90    3.50
   7   7  -5  197.98   11.20
   7   7  -5  183.88    5.70
  -7  -7   5  201.28   11.20
   6   7  -5   69.39    6.50
   6   7  -5   74.89    3.90
   6   7  -5   90.39    4.20
  -6  -7   5   94.69    7.70
   5   7  -5   15.10    2.00
   5   7  -5   18.60    4.00
   5   7  -5   11.80    2.10
  -5  -7   5   15.70    3.80
   4   7  -5   54.39    5.80
   4   7  -5   64.19    5.90
  -4  -7   5   66.59    6.00
   3   7  -5  132.09    7.40
   3   7  -5  113.49    5.50
   3   7  -5  140.49    8.10
  -3  -7   5  132.09    7.70
   2   7  -5  455.45   12.30
   2   7  -5  438.06   11.80
   2   7  -5  457.35   14.50
   2   7  -5  451.15   13.20
  -2  -7   5  446.66   12.10
  -2  -7   5  445.96   14.20
   1   7  -5    5.20    1.80
   1   7  -5    7.50    2.00
   1   7  -5    7.50    2.40
  -1  -7   5    3.90    1.80
  -1  -7   5    3.10    2.10
   0   7  -5   99.39    4.90
   0   7  -5  115.59    5.70
   0   7  -5   99.69    6.40
   0  -7   5  101.69    5.90
  -1   7  -5   60.19    3.20
  -1   7  -5   55.59    3.10
  -1   7  -5   55.79    5.00
   1  -7   5   68.09    5.10
  -2   7  -5  347.87    7.10
  -2   7  -5  342.87    7.00
  -2   7  -5  348.17   12.20
   2  -7   5  356.96   12.00
  -3   7  -5   15.80    3.30
   3  -7   5   25.50    4.20
  -4   7  -5   41.70    4.90
   4  -7   5   40.30    4.60
  -5   7  -5  621.54   18.50
   5  -7   5  619.24   18.60
  -6   7  -5  242.68   11.60
   6  -7   5  233.18   11.30
  -7   7  -5   12.20    4.10
   7  -7   5    8.90    3.00
  -8   7  -5  134.69    9.60
   8  -7   5  143.69    9.50
  -9   7  -5  163.68   10.80
   9  -7   5  156.78   10.30
 -10   7  -5   81.19    8.50
  10  -7   5   78.59    7.60
 -11   7  -5   13.80    8.00
  11  -7   5   17.60    4.60
  10   6  -5    6.40    3.40
 -10  -6   5    7.90    3.60
   9   6  -5   90.59    8.80
  -9  -6   5   78.39    7.90
   8   6  -5  320.37   14.50
  -8  -6   5  330.57   14.60
   7   6  -5  426.46    8.10
   7   6  -5  486.65   17.30
  -7  -6   5  478.75   17.50
   6   6  -5  100.09    7.50
   6   6  -5   97.69    3.50
   6   6  -5  100.99    3.60
  -6  -6   5  105.29    7.70
   5   6  -5  395.66   14.00
   5   6  -5  375.56    8.70
  -5  -6   5  407.66   14.30
   4   6  -5 1676.33   28.10
   4   6  -5 1699.13   34.00
   4   6  -5 1646.74   28.20
  -4  -6   5 1677.93   34.50
   3   6  -5  694.43   17.50
   3   6  -5  697.73   14.60
   3   6  -5  721.63   18.90
   3   6  -5  671.73   14.20
  -3  -6   5  672.23   14.30
  -3  -6   5  690.33   18.30
   2   6  -5   36.50    3.00
   2   6  -5   36.70    3.60
   2   6  -5   39.00    4.20
  -2  -6   5   30.20    4.10
  -2  -6   5   40.30    3.30
  -2  -6   5   34.40    4.10
   1   6  -5  343.27    9.90
   1   6  -5  333.97    9.60
   1   6  -5  341.87    9.40
  -1  -6   5  316.67   16.50
  -1  -6   5  339.87    9.90
   0   6  -5 1250.57   24.90
   0   6  -5 1290.27   22.90
   0   6  -5 1278.07   23.10
   0   6  -5 1327.77   27.20
   0  -6   5 1329.17   25.30
  -1   6  -5  148.19    7.40
  -1   6  -5  146.19    4.60
  -1   6  -5  144.99    4.50
   1  -6   5  150.78    6.80
   2  -6   5   31.00    3.50
  -3   6  -5 1457.35   30.30
   3  -6   5 1469.05   30.10
  -4   6  -5 1366.16   29.20
   4  -6   5 1339.17   29.10
  -5   6  -5  669.13   18.80
   5  -6   5  654.33   18.80
  -6   6  -5    3.40    2.80
   6  -6   5   -1.50    2.10
  -7   6  -5  260.57   12.00
   7  -6   5  232.58   11.50
  -9   6  -5  181.48   10.90
   9  -6   5  182.48    5.20
   9  -6   5  196.18   11.20
 -10   6  -5   42.40    6.60
  10  -6   5   36.60    3.70
  10  -6   5   58.09    6.60
 -11   6  -5  198.48   12.30
  11  -6   5  193.98   12.50
  11   5  -5   -5.70    5.50
  10   5  -5   47.80    7.60
 -10  -5   5   57.19    7.00
   9   5  -5   12.60    4.30
  -9  -5   5   14.60    4.30
   8   5  -5  132.99   13.90
  -8  -5   5  110.59   10.00
   7   5  -5   24.20    4.60
  -7  -5   5   32.30    5.00
   6   5  -5   71.99    6.30
  -6  -5   5   54.19    5.80
   5   5  -5 1031.20   18.90
   5   5  -5 1120.49   25.50
  -5  -5   5 1090.59   25.40
   4   5  -5  131.09    4.00
   4   5  -5  133.49    4.10
  -4  -5   5  131.49    7.50
   3   5  -5    4.40    1.10
   3   5  -5    6.10    2.10
   3   5  -5    0.50    1.90
  -3  -5   5    6.70    2.00
  -3  -5   5    1.70    2.20
   2   5  -5  635.04   16.30
   2   5  -5  599.04   12.70
   2   5  -5  635.14   15.20
   2   5  -5  622.84   14.50
  -2  -5   5  623.24   13.00
  -2  -5   5  603.34   14.60
  -2  -5   5  624.74   16.00
   1   5  -5  332.87    9.00
   1   5  -5  351.66   12.10
   1   5  -5  343.57    9.30
   1   5  -5  329.27    8.90
  -1  -5   5  357.56    9.30
  -1  -5   5  333.37   10.80
  -1  -5   5  335.17    9.20
   0   5  -5  490.65   10.80
   0   5  -5  513.95   10.70
   0   5  -5  477.15   12.10
   0   5  -5  519.45   15.20
   0  -5   5  492.65   14.00
   0  -5   5  512.85   10.90
  -1   5  -5  283.67   10.10
  -1   5  -5  283.37    6.40
  -1   5  -5  273.37    8.90
  -1   5  -5  278.47    6.20
   1  -5   5  289.97    9.30
   1  -5   5  281.37    6.40
  -2   5  -5 1967.80   36.90
   2  -5   5 2021.00   36.50
  -3   5  -5 1115.89   24.80
   3  -5   5 1095.39   24.00
  -4   5  -5  993.30   23.00
   4  -5   5  969.70   22.80
  -5   5  -5   76.09    6.40
   5  -5   5   75.79    6.10
  -6   5  -5    1.90    2.40
   6  -5   5    1.10    2.00
  -7   5  -5  104.39    7.90
   7  -5   5   98.79    3.50
   7  -5   5  102.49    3.40
   7  -5   5  110.99    7.80
  -8   5  -5  271.37   12.60
   8  -5   5  261.67    7.00
   8  -5   5  260.67    7.20
   8  -5   5  271.77   12.60
  -9   5  -5   38.10    6.00
   9  -5   5   45.10    5.40
   9  -5   5   27.70    3.20
   9  -5   5   41.40    6.00
 -10   5  -5  132.09    9.70
  10  -5   5  143.89   10.10
  10  -5   5  145.49    6.50
 -11   5  -5  167.18   11.30
  11  -5   5  145.09    8.80
  11  -5   5  167.78   11.20
  11   4  -5   46.90    7.30
 -11  -4   5   43.10    6.30
  10   4  -5  491.85   19.20
 -10  -4   5  483.35   18.60
   9   4  -5  105.69    8.20
  -9  -4   5   90.09    7.90
   8   4  -5    0.30    2.50
  -8  -4   5    3.70    2.50
   7   4  -5  160.98    9.50
  -7  -4   5  167.78    9.30
   6   4  -5  821.32   21.60
  -6  -4   5  821.42   21.40
   5   4  -5 1111.19   25.10
  -5  -4   5 1092.79   24.90
   4   4  -5   13.50    2.70
   3   4  -5  627.74   11.50
   3   4  -5  655.93   16.60
   3   4  -5  643.04   15.60
  -3  -4   5  646.14   11.60
  -3  -4   5  617.44   15.60
  -3  -4   5  654.33   16.30
   2   4  -5 1656.63   31.40
   2   4  -5 1684.13   27.20
   2   4  -5 1647.24   30.20
  -2  -4   5 1630.24   30.10
  -2  -4   5 1658.83   31.10
  -2  -4   5 1704.93   32.00
   1   4  -5 1589.84   26.90
   1   4  -5 1591.94   29.90
   1   4  -5 1573.34   27.50
  -1  -4   5 1585.44   27.00
  -1  -4   5 1584.44   29.70
  -1  -4   5 1551.04   27.30
   0   4  -5  176.58    7.40
   0   4  -5  178.38    6.30
   0   4  -5  187.28    7.40
   0  -4   5  183.48    7.40
   0  -4   5  180.08    6.50
   0  -4   5  178.68    5.40
  -1   4  -5  906.71   15.20
  -1   4  -5  879.31   18.60
  -1   4  -5  912.11   19.80
   1  -4   5  880.21   15.20
  -2   4  -5 4794.62   68.39
  -2   4  -5 4723.83   75.99
  -2   4  -5 4854.81   78.19
   2  -4   5 4660.73   68.49
   2  -4   5 4840.32   75.69
  -3   4  -5 2082.69   38.70
   3  -4   5 2175.88   39.10
  -4   4  -5    6.90    3.00
   4  -4   5    7.20    2.60
  -5   4  -5 1041.60   24.30
   5  -4   5 1047.30   17.00
   5  -4   5 1065.19   24.70
   5  -4   5 1030.30   16.90
  -6   4  -5 1033.00   24.90
   6  -4   5  988.30   17.70
   6  -4   5 1011.30   25.10
   6  -4   5 1073.89   21.70
  -7   4  -5   25.40    4.50
   7  -4   5   21.60    2.50
   7  -4   5   27.80    4.70
   7  -4   5   23.50    2.50
  -8   4  -5    1.10    2.70
   8  -4   5    0.60    2.40
   8  -4   5    2.90    2.70
  -9   4  -5  385.26   15.80
   9  -4   5  386.36   11.30
   9  -4   5  401.16   16.10
   9  -4   5  443.86   16.40
 -10   4  -5  308.37   14.80
  10  -4   5  341.77   15.30
  10  -4   5  299.17   11.80
 -11   4  -5  173.28   11.50
  11  -4   5  195.98   11.90
  11  -4   5  181.28    8.70
  12   3  -5   41.10   10.00
 -12  -3   5   30.00    6.60
  11   3  -5   85.59    8.40
 -11  -3   5   88.09    8.10
  10   3  -5   13.00    4.50
 -10  -3   5    9.40    3.40
   9   3  -5    0.60    2.90
   8   3  -5  528.15   17.90
  -8  -3   5  510.25   17.20
   7   3  -5   35.20    5.00
  -7  -3   5   41.90    5.00
   6   3  -5  174.58    8.80
  -6  -3   5  188.48    8.90
   5   3  -5  169.38    9.80
  -5  -3   5  159.28    8.00
   4   3  -5   43.00    4.10
  -4  -3   5   44.00    4.20
   3   3  -5    5.50    2.00
  -3  -3   5    8.20    1.00
  -3  -3   5    8.70    2.30
  -3  -3   5    6.30    2.10
   2   3  -5 1002.00   17.20
   2   3  -5  994.10   19.90
   2   3  -5 1007.00   20.80
   2   3  -5 1009.30   20.70
  -2  -3   5  982.70   17.20
  -2  -3   5 1004.90   21.90
  -2  -3   5 1022.70   20.70
   1   3  -5    0.50    1.00
   1   3  -5    1.50    1.40
   1   3  -5    4.00    1.60
   1   3  -5    1.90    1.40
  -1  -3   5   -0.60    1.00
  -1  -3   5    0.60    1.00
  -1  -3   5    1.20    1.70
   0   3  -5  290.37    8.90
   0   3  -5  279.47   10.60
   0   3  -5  294.77    8.20
   0  -3   5  292.47    7.30
   0  -3   5  293.37    8.20
   0  -3   5  277.87    8.70
  -1   3  -5 1560.14   24.90
  -1   3  -5 1485.65   28.30
  -1   3  -5 1552.04   28.80
   1  -3   5 1594.84   28.80
   1  -3   5 1542.45   28.40
   1  -3   5 1561.24   25.00
  -2   3  -5  371.16    7.40
  -2   3  -5  356.56   10.60
  -2   3  -5  357.86   10.90
   2  -3   5  355.06   10.90
   2  -3   5  371.96    7.50
   2  -3   5  370.16   10.90
  -3   3  -5  146.79    4.00
  -3   3  -5  145.19    6.90
   3  -3   5  137.19    4.00
   3  -3   5  149.99    7.00
  -4   3  -5  497.25   14.70
  -4   3  -5  494.05    9.70
   4  -3   5  491.05    9.90
   4  -3   5  494.75   16.50
   4  -3   5  476.25    9.70
  -5   3  -5   79.49    6.00
   5  -3   5   87.29    3.80
   5  -3   5   81.79    3.70
   5  -3   5   83.39    6.20
  -6   3  -5  247.98   10.80
   6  -3   5  245.98    7.40
   6  -3   5  239.38    7.30
   6  -3   5  260.87   11.00
  -7   3  -5   50.79    5.80
   7  -3   5   52.59    5.50
   7  -3   5   50.69    3.80
  -8   3  -5  267.17   12.40
   8  -3   5  261.67   12.30
   8  -3   5  281.47    9.30
  -9   3  -5  295.17   13.60
   9  -3   5  267.07   11.30
   9  -3   5  290.07   15.70
 -10   3  -5  119.39    9.70
  10  -3   5  128.59    9.40
  10  -3   5  126.59    7.40
 -11   3  -5   14.80    4.60
  11  -3   5   10.70    4.10
  11  -3   5   19.00    4.00
  12   2  -5   99.39   10.10
 -12  -2   5  115.59    9.50
  11   2  -5  223.48   12.70
 -11  -2   5  218.58   12.40
  10   2  -5   16.10    4.00
 -10  -2   5   12.50    3.80
   9   2  -5   -0.80    2.50
  -9  -2   5    0.90    2.50
   8   2  -5 1007.90   25.80
  -8  -2   5  955.30   24.50
   7   2  -5 1408.16   31.30
  -7  -2   5 1407.56   30.30
   6   2  -5    8.00    2.60
  -6  -2   5    9.30    2.80
   5   2  -5  222.18    9.40
  -5  -2   5  228.18    8.90
   4   2  -5  265.07    9.50
  -4  -2   5  243.98    8.90
   3   2  -5  541.25   13.20
   3   2  -5  556.64   11.20
   3   2  -5  552.34   13.70
  -3  -2   5  536.65    9.30
  -3  -2   5  521.75   13.40
  -3  -2   5  531.85   13.30
   2   2  -5  100.09    5.90
   2   2  -5   99.39    3.60
   2   2  -5   98.79    5.00
   2   2  -5  100.89    4.90
  -2  -2   5   97.19    5.80
  -2  -2   5   97.69    3.50
  -2  -2   5   98.19    4.90
   1   2  -5 1201.68   22.80
   1   2  -5 1167.08   20.90
   1   2  -5 1187.08   22.00
   1   2  -5 1298.37   29.70
  -1  -2   5 1154.48   21.80
  -1  -2   5 1197.38   21.20
   0   2  -5 1863.61   32.40
   0   2  -5 1952.80   33.50
   0   2  -5 1939.61   31.80
   0   2  -5 1981.80   40.30
   0  -2   5 1966.10   32.90
   0  -2   5 1921.41   31.80
  -1   2  -5  750.92   18.40
  -1   2  -5  732.03   16.50
   1  -2   5  740.33   16.10
   1  -2   5  746.93   14.30
   1  -2   5  811.52   16.80
  -2   2  -5   24.10    2.90
  -2   2  -5   18.30    2.70
  -2   2  -5   17.30    2.20
   2  -2   5   19.40    2.00
   2  -2   5   18.40    2.60
   2  -2   5   21.50    3.10
  -3   2  -5  316.87    7.90
  -3   2  -5  312.77   10.20
   3  -2   5  322.57   10.70
   3  -2   5  317.17    7.80
  -4   2  -5  617.64   16.20
  -4   2  -5  634.54   13.00
   4  -2   5  634.04   13.10
   4  -2   5  643.04   13.40
   4  -2   5  602.34   16.90
  -5   2  -5 1633.54   28.20
  -5   2  -5 1615.24   32.50
   5  -2   5 1557.94   27.90
   5  -2   5 1612.64   28.50
   5  -2   5 1584.64   32.70
  -6   2  -5   57.29    5.70
   6  -2   5   41.80    5.00
   6  -2   5   50.19    3.70
   6  -2   5   51.79    5.40
  -7   2  -5  211.08   10.40
   7  -2   5  198.28    8.00
   7  -2   5  215.78   10.50
  -8   2  -5 1668.03   37.00
   8  -2   5 1660.43   37.20
   8  -2   5 1714.33   33.40
  -9   2  -5  109.19    8.40
   9  -2   5   95.59    8.40
   9  -2   5  117.69    7.00
 -10   2  -5    8.00    3.40
  10  -2   5    0.90    2.50
  10  -2   5   10.70    3.60
 -11   2  -5  105.39    9.30
  11  -2   5  136.89    9.90
  11  -2   5  133.29    8.80
  12   1  -5   16.90    4.60
 -12  -1   5   26.60    5.40
  11   1  -5    9.10    4.00
 -11  -1   5    9.90    3.80
  10   1  -5   19.60    5.00
 -10  -1   5   25.40    5.70
   9   1  -5  409.86   15.90
  -9  -1   5  440.16   15.60
   8   1  -5   45.80    5.40
  -8  -1   5   44.20    5.40
   7   1  -5  143.39    8.20
  -7  -1   5  133.59    7.60
   6   1  -5  793.62   20.20
  -6  -1   5  794.32   21.70
   5   1  -5  203.88    8.70
  -5  -1   5  207.88    8.10
   4   1  -5   63.99    4.10
   4   1  -5   57.79    4.50
  -4  -1   5   62.29    4.20
  -4  -1   5   62.39    2.10
   3   1  -5   21.00    3.10
   3   1  -5   20.80    1.60
   3   1  -5   23.20    3.20
  -3  -1   5   26.30    1.80
  -3  -1   5   25.70    2.90
  -3  -1   5   20.60    2.70
   2   1  -5 1814.62   31.20
   2   1  -5 1839.42   29.40
   2   1  -5 1801.22   31.90
   2   1  -5 1808.22   30.90
  -2  -1   5 1774.92   30.90
  -2  -1   5 1838.92   31.10
   1   1  -5  435.56   10.70
   1   1  -5  439.36   10.20
   1   1  -5  434.46   10.50
   1   1  -5  451.55   11.00
  -1  -1   5  444.56   10.60
  -1  -1   5  447.86   10.30
  -1  -1   5  427.56   10.80
   0   1  -5 1385.26   25.00
   0   1  -5 1434.86   25.00
   0   1  -5 1435.76   25.40
   0   1  -5 1443.96   25.60
   0  -1   5 1402.56   25.10
   0  -1   5 1380.26   24.90
   0  -1   5 1465.85   25.80
  -1   1  -5  156.88    5.60
  -1   1  -5  164.88    6.20
  -1   1  -5  156.38    6.30
   1  -1   5  166.98    5.70
   1  -1   5  166.08    6.30
  -2   1  -5    5.40    1.50
  -2   1  -5    8.30    2.00
   2  -1   5    9.30    2.20
   2  -1   5    6.10    1.80
   2  -1   5    7.20    1.60
  -3   1  -5  999.50   19.20
  -3   1  -5 1002.10   21.30
   3  -1   5 1010.50   22.10
   3  -1   5 1031.40   23.60
   3  -1   5 1000.90   19.30
  -4   1  -5  182.78    6.60
  -4   1  -5  165.78    7.70
  -5   1  -5   43.10    3.60
  -5   1  -5   45.30    4.70
   5  -1   5   41.80    3.60
   5  -1   5   38.20    3.50
   5  -1   5   38.60    4.80
  -6   1  -5   80.69    6.20
  -6   1  -5   78.89    5.00
   6  -1   5   76.69    6.60
   6  -1   5   72.49    5.00
  -7   1  -5  474.05   16.10
   7  -1   5  503.65   16.80
   7  -1   5  491.65   16.70
  -8   1  -5  201.48   10.70
   8  -1   5  214.58   11.40
   8  -1   5  211.28    9.50
  -9   1  -5   10.40    3.50
   9  -1   5   11.70    3.10
   9  -1   5   11.90    3.90
 -10   1  -5   79.69    7.70
  10  -1   5   86.79    7.10
  10  -1   5   78.69    7.70
 -11   1  -5   32.00    6.10
  11  -1   5   32.90    5.50
  11  -1   5   33.00    6.00
  12   0  -5   42.30    6.70
 -12   0   5   53.39    7.10
  11   0  -5   75.39    8.00
 -11   0   5   82.39    7.50
  10   0  -5  289.87    8.40
  10   0  -5  341.47   15.20
 -10   0   5  321.07    7.50
 -10   0   5  325.17   13.60
   9   0  -5  437.56   16.20
   9   0  -5  429.96    8.90
  -9   0   5  435.46   10.30
  -9   0   5  457.15   15.60
  -9   0   5  445.46    9.20
   8   0  -5  195.28   10.20
  -8   0   5  213.68    9.80
  -8   0   5  209.28    5.40
  -8   0   5  206.88    5.40
   7   0  -5  581.64   17.30
  -7   0   5  581.44   10.80
  -7   0   5  557.84   10.70
  -7   0   5  576.74   16.00
   6   0  -5 1312.87   28.10
  -6   0   5 1273.07   20.80
  -6   0   5 1250.87   20.80
  -6   0   5 1298.87   26.10
   5   0  -5  656.23   15.30
   5   0  -5  642.84   16.90
  -5   0   5  657.23   12.00
  -5   0   5  646.84   15.40
  -5   0   5  656.13   12.00
   4   0  -5    7.00    1.70
   4   0  -5    6.80    2.10
  -4   0   5    8.10    2.00
  -4   0   5    9.50    1.30
  -4   0   5   10.00    1.40
   3   0  -5  905.11   17.60
   3   0  -5  879.91   17.20
   3   0  -5  876.21   19.20
  -3   0   5  861.11   15.90
  -3   0   5  850.31   18.90
  -3   0   5  889.71   18.00
  -3   0   5  894.41   17.40
   2   0  -5 3186.58   49.60
   2   0  -5 3172.78   49.70
   2   0  -5 3164.98   49.80
  -2   0   5 3203.28   49.70
  -2   0   5 3214.08   51.89
  -2   0   5 3173.78   49.80
   1   0  -5 1901.91   31.10
   1   0  -5 1878.21   31.90
   1   0  -5 1870.81   32.80
   1   0  -5 1883.81   30.90
  -1   0   5 1869.31   31.00
  -1   0   5 1869.71   32.00
   0   0  -5  660.33   14.50
   0   0  -5  663.53   13.50
   0   0   5  618.84   14.10
   0   0   5  655.93   14.80
   0   0   5  651.53   13.40
  -1   0  -5 1444.66   27.30
  -1   0  -5 1462.85   25.80
  -1   0  -5 1456.95   26.30
   1   0   5 1464.25   26.60
   1   0   5 1412.16   25.50
   1   0   5 1508.05   27.80
  -2   0  -5 4390.36   66.59
  -2   0  -5 4385.16   67.19
   2   0   5 3827.82   71.29
   2   0   5 4418.36   68.89
   2   0   5 4230.48   66.79
  -3   0  -5  315.87    9.90
   3   0   5  305.37    9.20
   3   0   5  291.97    9.40
   3   0   5  303.97   10.70
  -4   0  -5   85.29    5.20
  -4   0  -5  102.29    6.10
   4   0   5   84.99    5.10
   4   0   5   84.09    5.90
  -5   0  -5  997.50   21.50
  -5   0  -5 1010.10   23.10
   5   0   5 1026.20   22.30
   5   0   5  965.40   23.80
  -6   0  -5    0.90    2.40
   6   0   5    5.00    2.50
  -7   0  -5 1277.07   27.10
  -7   0  -5 1179.78   28.60
   7   0   5 1225.28   27.40
   7   0   5 1229.68   29.70
  -8   0  -5   -0.10    2.70
   8   0   5    2.00    2.40
   8   0   5    2.40    2.70
  -9   0  -5  180.98   10.80
   9   0   5  206.58   11.50
   9   0   5  184.98   10.10
 -10   0  -5  286.37   14.40
  10   0   5  304.37   14.50
  12  -1  -5   73.99    8.60
 -12   1   5   91.19    8.10
  11  -1  -5  131.69   10.10
  11  -1  -5  141.69    5.50
 -11   1   5  123.29    7.30
 -11   1   5  138.09    9.50
  10  -1  -5  241.98   19.10
  10  -1  -5  246.28    7.40
 -10   1   5  244.98    7.70
 -10   1   5  243.68    7.60
 -10   1   5  242.18   11.50
   9  -1  -5  260.47   12.30
   9  -1  -5  261.57    7.50
  -9   1   5  256.87    7.60
  -9   1   5  265.27   11.40
  -9   1   5  258.07    7.70
   8  -1  -5  180.78    9.70
   8  -1  -5  186.28    6.00
  -8   1   5  177.78    6.00
  -8   1   5  188.48    9.00
  -8   1   5  178.48    6.10
   7  -1  -5  304.67   12.00
   7  -1  -5  304.27    8.00
  -7   1   5  307.57    8.10
  -7   1   5  290.27   12.20
  -7   1   5  299.97    7.90
   6  -1  -5  284.47   11.10
  -6   1   5  278.17    7.50
  -6   1   5  282.27    9.40
  -6   1   5  275.17    7.60
   5  -1  -5   59.49    5.10
   5  -1  -5   65.79    4.00
  -5   1   5   62.19    3.40
  -5   1   5   58.99    3.30
   4  -1  -5  736.03   15.10
   4  -1  -5  749.92   18.00
  -4   1   5  735.63   14.80
  -4   1   5  716.73   15.10
  -4   1   5  718.63   14.50
   3  -1  -5 1078.79   20.30
   3  -1  -5 1098.89   22.90
   3  -1  -5 1124.69   19.90
   3  -1  -5 1063.69   19.50
  -3   1   5 1094.89   19.60
  -3   1   5 1102.69   20.60
  -3   1   5 1072.09   20.10
   2  -1  -5  184.98    6.50
   2  -1  -5  179.88    5.30
   2  -1  -5  177.38    7.30
  -2   1   5  177.48    6.40
  -2   1   5  173.18    7.00
   1  -1  -5   10.00    1.80
   1  -1  -5    9.60    2.30
   1  -1  -5    8.20    2.00
   1  -1  -5   10.30    1.50
  -1   1   5   12.40    2.10
  -1   1   5    6.20    1.70
   0  -1  -5 2419.06   37.50
   0  -1  -5 2266.67   42.10
   0  -1  -5 2350.36   40.40
   0   1   5 2338.07   40.10
   0   1   5 2408.46   40.70
   0   1   5 2364.06   37.30
  -1  -1  -5   32.30    3.50
   1   1   5   35.60    3.60
   1   1   5   31.20    2.60
   1   1   5   34.80    3.40
  -2  -1  -5 1166.88   22.10
  -2  -1  -5 1144.69   23.10
   2   1   5 1182.18   24.70
   2   1   5 1115.79   23.00
  -3  -1  -5    6.80    2.00
  -3  -1  -5    5.40    2.00
   3   1   5    5.40    1.90
  -4  -1  -5  364.66   11.40
  -4  -1  -5  358.66   11.40
   4   1   5  330.07   12.20
  -5  -1  -5  246.58   10.00
  -5  -1  -5  255.27   10.20
   5   1   5  252.07   11.00
   5   1   5  251.27   10.10
  -6  -1  -5   54.29    4.90
  -6  -1  -5   47.80    5.40
   6   1   5   64.39    6.40
   6   1   5   65.29    5.80
  -7  -1  -5    2.50    2.80
  -7  -1  -5    6.70    2.90
   7   1   5    4.90    3.00
   7   1   5    5.00    2.80
  -8  -1  -5   97.89    9.30
   8   1   5   80.99    7.10
  -9  -1  -5  191.98   11.20
   9   1   5  205.78   11.90
   9   1   5  195.28   11.20
 -10  -1  -5   17.90    4.50
  10   1   5   15.00    4.00
  10   1   5   18.10    4.60
  12  -2  -5  142.59   11.00
  12  -2  -5  148.99    8.10
 -12   2   5  157.18   10.50
 -12   2   5  139.29    7.10
  11  -2  -5  387.66   11.20
  11  -2  -5  410.76   17.10
 -11   2   5  417.86   11.80
 -11   2   5  412.66   16.20
  10  -2  -5   -1.80    1.50
 -10   2   5    5.30    2.30
 -10   2   5    2.20    1.80
 -10   2   5   -0.50    2.40
   9  -2  -5   14.80    3.80
   9  -2  -5   12.40    3.60
  -9   2   5   13.70    2.50
  -9   2   5   12.10    3.50
  -9   2   5   13.20    2.40
   8  -2  -5  597.84   18.40
  -8   2   5  560.84   16.00
  -8   2   5  545.55   13.40
   7  -2  -5  297.07    8.80
   7  -2  -5  290.77   11.80
  -7   2   5  285.77   10.00
  -7   2   5  285.87   10.30
  -7   2   5  282.77   10.10
   6  -2  -5  621.84   14.90
   6  -2  -5  636.64   17.80
  -6   2   5  636.14   15.00
  -6   2   5  653.83   14.60
   5  -2  -5  154.58    9.80
   5  -2  -5  168.48    6.40
  -5   2   5  177.38    6.60
  -5   2   5  180.38    9.90
  -5   2   5  177.58    6.30
   4  -2  -5 1267.27   26.40
   4  -2  -5 1248.78   22.00
  -4   2   5 1226.38   21.90
  -4   2   5 1278.47   23.90
   3  -2  -5 1179.08   24.50
   3  -2  -5 1143.09   19.50
   3  -2  -5 1137.79   22.40
   3  -2  -5 1152.08   19.70
  -3   2   5 1146.69   19.50
  -3   2   5 1147.19   22.20
   2  -2  -5  105.29    3.40
   2  -2  -5  102.09    5.30
   2  -2  -5  100.99    5.80
   2  -2  -5  107.69    3.50
  -2   2   5  108.09    5.20
  -2   2   5  105.59    5.60
   1  -2  -5  547.25   13.80
   1  -2  -5  542.15   10.20
   1  -2  -5  548.25   10.30
   1  -2  -5  555.94   14.40
  -1   2   5  553.34   14.00
   0  -2  -5 1940.51   30.70
   0  -2  -5 1927.81   35.00
   0   2   5 1909.91   30.50
   0   2   5 1912.61   35.30
  -1  -2  -5  514.45   11.20
  -1  -2  -5  524.65   13.90
   1   2   5  484.65   14.00
   1   2   5  509.45   11.10
  -2  -2  -5   70.09    4.90
  -2  -2  -5   73.49    4.20
   2   2   5   69.99    4.20
  -3  -2  -5    7.80    2.30
  -3  -2  -5    8.80    2.10
   3   2   5    8.20    2.50
   3   2   5    3.20    1.70
  -4  -2  -5 1616.84   32.50
  -4  -2  -5 1654.63   31.60
   4   2   5 1646.34   34.20
  -5  -2  -5  240.08   10.20
  -5  -2  -5  243.28   10.00
   5   2   5  241.18   11.20
  -6  -2  -5    9.60    2.90
  -6  -2  -5   16.20    3.60
   6   2   5   14.70    3.70
   6   2   5   11.00    3.10
  -7  -2  -5  661.03   19.70
  -7  -2  -5  670.43   19.90
   7   2   5  673.33   21.10
   7   2   5  683.33   20.70
  -8  -2  -5  220.88   11.00
  -8  -2  -5  229.68   14.00
   8   2   5  222.78   12.00
   8   2   5  219.28   11.70
  -9  -2  -5  243.18   12.80
   9   2   5  264.07   13.70
   9   2   5  256.57   13.10
 -10  -2  -5    8.00    3.90
  10   2   5   12.80    4.20
  10   2   5    4.10    3.80
  12  -3  -5    1.30    2.30
  12  -3  -5    7.30    3.90
 -12   3   5    9.80    3.90
 -12   3   5    3.00    2.80
  11  -3  -5    2.60    3.10
 -11   3   5    6.50    4.00
 -11   3   5    3.90    3.00
  10  -3  -5  185.08    7.90
 -10   3   5  185.58    9.60
 -10   3   5  182.18    8.10
   9  -3  -5   58.09    6.30
   9  -3  -5   56.29    4.30
  -9   3   5   53.39    4.60
  -9   3   5   49.50    5.00
   8  -3  -5  392.86   11.60
   8  -3  -5  395.56   14.70
  -8   3   5  389.16   11.80
  -8   3   5  405.06   15.00
   7  -3  -5    3.30    1.70
   7  -3  -5    3.30    2.70
  -7   3   5    5.80    2.00
  -7   3   5    1.60    1.70
   6  -3  -5  437.06   14.50
   6  -3  -5  446.46   11.50
   6  -3  -5  453.05   12.40
  -6   3   5  439.26   12.40
  -6   3   5  450.55   12.40
   5  -3  -5   32.60    2.80
   5  -3  -5   51.09    5.00
  -5   3   5   27.90    3.20
  -5   3   5   31.90    3.50
  -5   3   5   33.00    2.90
   4  -3  -5  150.08    9.40
   4  -3  -5  156.18    4.80
  -4   3   5  149.79    6.60
  -4   3   5  149.59    6.70
  -4   3   5  150.88    4.70
   3  -3  -5   49.30    2.10
   3  -3  -5   47.10    2.10
   3  -3  -5   52.49    4.80
  -3   3   5   45.20    4.00
   2  -3  -5  396.06   12.50
  -2   3   5  410.26   12.20
   1  -3  -5 2145.69   31.80
   1  -3  -5 2117.99   38.80
   1  -3  -5 2085.39   31.30
  -1   3   5 2146.39   38.90
   0  -3  -5  168.38    4.50
   0  -3  -5  171.88    7.70
   0   3   5  155.48    4.40
   0   3   5  161.18    7.60
  -1  -3  -5    2.30    1.10
   1   3   5    3.40    1.80
   1   3   5    1.20    1.00
  -2  -3  -5  235.48    7.50
  -2  -3  -5  231.78    9.50
   2   3   5  236.08   10.10
   2   3   5  226.18    7.30
  -3  -3  -5  309.87   11.40
  -3  -3  -5  311.57    9.70
   3   3   5  313.87   12.10
   3   3   5  311.17    9.60
  -4  -3  -5   65.69    5.80
  -4  -3  -5   72.69    5.30
   4   3   5   71.09    6.20
  -5  -3  -5   16.50    3.60
  -5  -3  -5   19.90    3.60
   5   3   5   18.40    4.20
  -6  -3  -5  281.17   11.50
  -6  -3  -5  273.87   12.10
   6   3   5  282.77   12.90
   6   3   5  274.87   12.40
  -7  -3  -5  319.97   13.80
  -7  -3  -5  297.77   12.90
   7   3   5  313.77   17.40
   7   3   5  331.27   14.80
  -8  -3  -5    7.10    3.40
  -8  -3  -5    4.60    3.00
   8   3   5    4.30    3.10
   8   3   5    3.70    3.20
  -9  -3  -5    1.70    3.20
   9   3   5   -4.60    2.90
   9   3   5   -0.80    3.10
  12  -4  -5   92.59    6.50
  12  -4  -5   73.99    8.00
 -12   4   5   71.79    6.90
 -12   4   5   96.59    7.90
  11  -4  -5   57.49    7.60
  11  -4  -5   61.09    5.40
 -11   4   5   65.99    6.20
 -11   4   5   56.89    5.80
  10  -4  -5  321.47   11.50
  10  -4  -5  323.67   14.40
 -10   4   5  301.27   12.10
 -10   4   5  307.47   11.70
   9  -4  -5  458.15   13.80
   9  -4  -5  450.25   16.60
  -9   4   5  453.95   14.20
  -9   4   5  451.55   14.00
   8  -4  -5    7.20    3.00
  -8   4   5    6.00    2.30
  -8   4   5    6.90    2.40
   7  -4  -5   16.80    3.70
   7  -4  -5   17.70    3.10
   7  -4  -5   16.70    2.90
  -7   4   5   17.60    3.70
  -7   4   5   18.90    4.60
   6  -4  -5  665.73   14.50
   6  -4  -5  677.83   17.20
   6  -4  -5  678.13   19.20
  -6   4   5  656.33   17.10
  -6   4   5  665.83   14.30
   5  -4  -5  166.88    8.70
   5  -4  -5  165.48    5.30
  -5   4   5  166.88    7.80
  -5   4   5  174.98    7.30
   4  -4  -5  344.07    6.80
   4  -4  -5  345.17    6.90
   4  -4  -5  339.47   12.30
  -4   4   5  338.37    6.60
  -4   4   5  358.66   11.60
   3  -4  -5  139.59    7.60
  -3   4   5  135.49    7.00
   2  -4  -5 2117.19   40.00
   1  -4  -5 1009.60   23.30
  -1   4   5 1037.80   23.60
   0  -4  -5   94.49    2.90
   0  -4  -5   84.79    6.10
   0   4   5   98.79    6.40
   0   4   5   92.89    2.90
  -1  -4  -5  215.48    9.40
  -1  -4  -5  197.08    5.90
   1   4   5  197.88    5.80
   1   4   5  224.08    9.90
  -2  -4  -5  410.56   13.80
  -2  -4  -5  418.86   10.60
   2   4   5  440.66   14.80
   2   4   5  425.56   10.60
  -3  -4  -5 1572.84   29.00
  -3  -4  -5 1558.04   33.00
   3   4   5 1542.55   28.90
   3   4   5 1548.74   33.70
  -4  -4  -5   10.50    3.30
  -4  -4  -5   17.10    3.20
   4   4   5   14.10    3.90
  -5  -4  -5  251.47   10.20
  -5  -4  -5  237.98   11.40
   5   4   5  251.17   12.20
  -6  -4  -5  367.66   13.60
  -6  -4  -5  431.66   23.80
  -7  -4  -5  227.78   11.20
  -7  -4  -5  238.98   12.10
   7   4   5  235.88   13.00
   7   4   5  232.38   12.60
  -8  -4  -5    3.10    2.70
  -8  -4  -5   -0.50    2.70
   8   4   5   -6.10    2.70
   8   4   5   -1.40    2.60
  12  -5  -5  119.19    7.90
  12  -5  -5  128.69   10.20
 -12   5   5  125.69    8.60
 -12   5   5  118.19    8.50
  11  -5  -5  272.77   11.30
  11  -5  -5  261.87   13.60
 -11   5   5  264.97   11.80
 -11   5   5  289.57   12.50
  10  -5  -5  119.79    8.90
  10  -5  -5  110.49    7.30
 -10   5   5  105.89    7.00
 -10   5   5  101.49    7.40
   9  -5  -5    1.50    2.70
   9  -5  -5    1.20    2.00
  -9   5   5   -0.60    1.60
  -9   5   5    0.60    2.00
   8  -5  -5  598.94   19.30
   8  -5  -5  595.44   17.10
  -8   5   5  587.24   15.00
  -8   5   5  609.44   17.50
   7  -5  -5  506.15   12.90
   7  -5  -5  541.75   17.60
   7  -5  -5  523.55   15.70
  -7   5   5  538.35   16.20
   6  -5  -5   -2.80    1.70
  -6   5   5    2.00    1.20
  -6   5   5   -2.40    1.90
   5  -5  -5    0.70    0.90
   5  -5  -5   -2.60    2.00
  -5   5   5    1.00    0.80
  -5   5   5    3.60    2.30
   4  -5  -5  826.62   21.50
  -4   5   5  815.12   20.70
   3  -5  -5  874.11   22.10
  -3   5   5  881.41   21.80
   2  -5  -5  385.16   13.40
  -2   5   5  403.36   13.70
   1  -5  -5   85.99    6.40
  -1   5   5   74.19    6.00
   0  -5  -5  286.77   11.50
   0   5   5  305.07   12.10
  -1  -5  -5  249.68   10.90
   1   5   5  246.28   11.00
   1   5   5  241.98    6.40
  -2  -5  -5  254.47    7.70
  -2  -5  -5  247.98   11.10
   2   5   5  243.48    7.70
   2   5   5  249.88   11.40
  -3  -5  -5    5.60    2.10
  -3  -5  -5   13.30    3.60
   3   5   5   11.70    3.30
   3   5   5    6.60    2.80
  -4  -5  -5   93.09    6.90
  -4  -5  -5   81.09    7.10
   4   5   5  104.79    8.00
  -5  -5  -5  243.78   10.10
  -5  -5  -5  231.98   12.10
   5   5   5  230.08   12.40
   5   5   5  245.08   14.80
  -6  -5  -5   18.50    3.70
  -6  -5  -5   13.50    4.30
   6   5   5   15.10    4.30
   6   5   5    9.20    3.80
  -7  -5  -5    5.60    3.10
  -7  -5  -5   10.70    3.80
   7   5   5    9.60    3.70
   7   5   5    2.10    3.40
  -8  -5  -5   70.99    7.50
  -8  -5  -5   62.69    7.40
   8   5   5   63.19    8.50
   8   5   5   70.79    7.50
  11  -6  -5  134.99   10.60
  11  -6  -5  147.19    8.80
 -11   6   5  144.59    8.40
 -11   6   5  134.89    9.10
  10  -6  -5  116.49    8.00
  10  -6  -5  104.29    9.10
 -10   6   5  126.69    8.50
 -10   6   5  134.89    7.50
   9  -6  -5   25.30    3.90
   9  -6  -5   27.70    6.20
  -9   6   5   15.80    3.90
   8  -6  -5  220.48   11.50
   8  -6  -5  211.78   10.20
  -8   6   5  216.88    7.90
  -8   6   5  230.98   11.10
   7  -6  -5  516.55   12.40
   7  -6  -5  525.25   16.80
   7  -6  -5  520.05   17.80
  -7   6   5  517.75   11.90
  -7   6   5  532.05   16.90
   6  -6  -5   56.29    5.50
   6  -6  -5   63.09    6.60
   6  -6  -5   60.69    3.00
  -6   6   5   54.29    5.60
  -6   6   5   55.39    2.70
   5  -6  -5  206.58   10.30
  -5   6   5  210.48   10.10
   4  -6  -5  693.53   20.00
  -4   6   5  701.13   19.80
   3  -6  -5  860.81   22.60
  -3   6   5  858.51   22.60
   2  -6  -5    0.40    2.30
  -2   6   5    3.60    2.40
   1  -6  -5  168.88    9.40
  -1   6   5  176.98    9.50
   0  -6  -5  171.78    9.50
   0   6   5  159.88    9.30
  -1  -6  -5  287.87    7.90
  -1  -6  -5  279.67   12.20
   1   6   5  285.97   12.70
   1   6   5  287.77    6.80
  -2  -6  -5   84.79    7.40
  -2  -6  -5   92.49    4.50
   2   6   5   82.19    4.50
   2   6   5   91.99    7.50
  -3  -6  -5  253.17   13.90
  -3  -6  -5  216.18    8.00
   3   6   5  228.08   11.90
  -4  -6  -5  249.38   12.30
   4   6   5  246.48   12.50
  -5  -6  -5  219.38    9.50
  -5  -6  -5  214.08   11.70
   5   6   5  215.58   12.10
   5   6   5  192.78   11.70
  -6  -6  -5   24.70    4.40
  -6  -6  -5   28.30    5.40
   6   6   5   23.30    5.30
   6   6   5   29.40    5.70
  -7  -6  -5  143.79   10.30
  -7  -6  -5  144.59    9.80
   7   6   5  153.08   11.20
   7   6   5  143.89   10.80
  11  -7  -5   -6.00    2.90
  11  -7  -5    0.00    2.80
 -11   7   5    0.20    3.00
 -11   7   5   -0.80    2.20
  10  -7  -5  106.69    8.20
  10  -7  -5  117.79    9.80
 -10   7   5  110.09    6.50
 -10   7   5  100.79    8.40
   9  -7  -5   36.00    6.30
   9  -7  -5   46.90    5.70
  -9   7   5   33.10    6.50
  -9   7   5   39.40    4.00
   8  -7  -5   99.39    7.90
   8  -7  -5  100.49   10.20
  -8   7   5   79.79    7.40
   7  -7  -5   -2.30    1.30
   7  -7  -5   -2.30    2.30
   7  -7  -5    0.10    2.60
  -7   7   5   -0.30    2.40
   6  -7  -5   42.80    5.90
  -6   7   5   50.79    5.70
   5  -7  -5  986.40   25.90
  -5   7   5  999.20   26.10
   4  -7  -5  108.89    7.90
  -4   7   5  125.39    8.60
   3  -7  -5   49.70    5.60
  -3   7   5   62.29    6.40
   2  -7  -5   99.69    7.50
  -2   7   5   88.99    7.50
   1  -7  -5  776.32   22.20
  -1   7   5  775.32   22.60
   0  -7  -5   18.90    4.00
   0   7   5   27.40    5.20
  -1  -7  -5    0.00    0.90
  -1  -7  -5    6.00    3.70
   1   7   5   -2.80    2.30
   1   7   5    1.00    1.00
   1   7   5   -0.80    0.90
  -2  -7  -5  240.18    7.30
  -2  -7  -5  250.07   12.30
   2   7   5  241.98    7.50
   2   7   5  256.97   12.90
  -3  -7  -5  224.38    8.00
  -3  -7  -5  204.38   11.50
   3   7   5  222.08   12.20
  -4  -7  -5   83.19    7.60
  -4  -7  -5   88.89    5.90
   4   7   5   92.99    8.30
  -5  -7  -5   39.10    6.10
  -5  -7  -5   33.80    4.50
   5   7   5   30.40    5.90
   5   7   5   34.00    6.30
  -6  -7  -5   51.79    6.10
  -6  -7  -5   31.60    5.60
   6   7   5   39.60    6.90
   6   7   5   43.70    7.10
  10  -8  -5   88.79    7.90
  10  -8  -5   89.39    8.80
 -10   8   5   83.59    8.50
   9  -8  -5   74.89    7.70
   9  -8  -5   90.59    7.90
  -9   8   5   61.39    5.40
  -9   8   5   66.79    7.60
   8  -8  -5  100.19    8.20
   8  -8  -5  105.99    8.90
  -8   8   5   81.99    7.70
  -8   8   5   97.29    4.80
   7  -8  -5    1.20    2.70
  -7   8   5    6.80    3.00
   6  -8  -5  559.14   22.90
  -6   8   5  559.04   22.10
   5  -8  -5  130.19   13.70
   4  -8  -5  100.09    8.10
   3  -8  -5   31.20    5.80
  -2   8   5  185.68   11.40
   1  -8  -5  681.63   21.80
  -1   8   5  668.53   21.80
   0  -8  -5   59.79    6.80
   0   8   5   57.59    6.50
  -1  -8  -5  163.08   10.60
   1   8   5  162.98   10.80
  -2  -8  -5  347.27   15.40
  -2  -8  -5  346.07    8.70
   2   8   5  346.17   15.60
  -3  -8  -5  194.58   11.60
  -3  -8  -5  194.48    7.50
   3   8   5  207.08   12.60
  -4  -8  -5   10.40    2.90
  -4  -8  -5    7.40    3.50
   4   8   5    7.30    3.60
  -5  -8  -5   34.90    4.80
   5   8   5   23.00    8.80
   5   8   5   31.10    5.80
   9  -9  -5   -3.50    3.00
   9  -9  -5    1.50    2.80
  -9   9   5   -1.80    3.10
   8  -9  -5  246.08   13.30
  -8   9   5  210.48   12.40
   7  -9  -5  171.58   10.90
  -7   9   5  187.18   11.60
   6  -9  -5  186.28   11.10
  -6   9   5  175.28   11.50
   5  -9  -5   -0.40    2.50
  -5   9   5   -0.90    2.20
   4  -9  -5  115.59    8.80
  -4   9   5  129.79    9.60
   3  -9  -5  295.57   14.00
  -3   9   5  311.87   14.70
   2  -9  -5  276.27   13.20
  -2   9   5  255.57   13.50
   1  -9  -5   21.70    4.50
  -1   9   5   22.00    5.10
   0  -9  -5   10.60    3.70
   0   9   5   11.90    4.20
  -1  -9  -5  408.46   17.30
   1   9   5  387.56   17.20
  -2  -9  -5   44.10    6.50
   2   9   5   39.00    6.50
  -3  -9  -5   34.50    6.70
   3   9   5   31.30    6.40
   7 -10  -5  282.17   14.30
  -7  10   5  269.97   14.60
   6 -10  -5    7.50    4.20
  -6  10   5    9.20    4.10
   5 -10  -5   -0.20    2.90
  -5  10   5   -3.30    2.80
   4 -10  -5  227.98   12.80
  -4  10   5  200.18   12.70
   3 -10  -5  231.98   12.80
  -3  10   5  228.28   13.40
   2 -10  -5   52.09    7.50
  -2  10   5   48.20    7.00
   1 -10  -5   47.80    6.80
  -1  10   5   56.99    7.90
   0 -10  -5   74.79    8.00
   0  10   5   88.09    8.90
  -1 -10  -5  177.48   13.60
   1  10   5  161.78   16.90
   1  13  -6   79.59    7.20
   1  13  -6   93.29    8.50
   1  13  -6   84.39    8.00
  -1 -13   6   93.39    8.10
   0  13  -6  118.59    9.50
   0  13  -6  132.79    8.60
   0  13  -6  129.99    9.40
   0 -13   6  140.99    9.80
  -1  13  -6   51.99    7.30
  -1  13  -6   42.80    5.10
  -1  13  -6   41.10    6.50
   1 -13   6   42.00    6.40
  -2  13  -6   33.50    6.20
  -2  13  -6   44.40    6.80
   2 -13   6   54.39    6.70
  -3  13  -6  242.58   12.90
   3 -13   6  207.98   12.40
  -4  13  -6  128.19   10.00
   4 -13   6  129.89   10.40
   3  12  -6  177.98   11.40
   3  12  -6  166.08   10.30
   3  12  -6  156.08    9.50
   2  12  -6  409.06   15.80
   2  12  -6  423.16   15.60
   2  12  -6  406.86   16.80
  -2 -12   6  396.66   15.20
   1  12  -6  257.67   13.20
   1  12  -6  230.48   17.10
   1  12  -6  239.68   11.10
   0  12  -6    4.70    3.40
   0  12  -6   12.40    3.10
   0  12  -6   15.40    4.10
   0 -12   6   13.70    3.50
  -1  12  -6   67.39    7.80
  -1  12  -6   61.19    6.70
  -1  12  -6   53.09    6.90
   1 -12   6   67.19    6.70
  -2  12  -6  318.37   14.30
  -2  12  -6  327.27   10.00
   2 -12   6  319.07   14.60
  -3  12  -6  376.36   15.90
   3 -12   6  328.57   15.10
  -4  12  -6    6.70    4.00
   4 -12   6    9.80    3.80
  -5  12  -6  182.38   11.60
   5 -12   6  182.68   11.20
  -6  12  -6  302.67   14.80
   6 -12   6  305.87   15.30
   5  11  -6   39.80    5.90
   5  11  -6   32.80    6.00
   5  11  -6   42.80    5.00
  -5 -11   6   51.19    7.30
   4  11  -6   -2.90    2.60
   4  11  -6   -4.50    2.10
   4  11  -6   -7.30    3.50
  -4 -11   6    1.90    2.30
   3  11  -6  218.48   10.10
   3  11  -6  216.68   12.10
   3  11  -6  207.08   11.10
  -3 -11   6  212.28   11.70
   2  11  -6  173.78    9.50
   2  11  -6  151.38   10.10
   2  11  -6  168.28    9.30
  -2 -11   6  156.48    8.70
   1  11  -6   11.60    4.20
   1  11  -6   19.10    3.50
   1  11  -6   17.30    3.50
  -1 -11   6   17.10    3.90
   0  11  -6    1.90    2.60
   0  11  -6    4.40    2.10
   0 -11   6    2.40    2.80
  -1  11  -6   25.30    7.50
  -1  11  -6   18.60    3.00
   1 -11   6   19.70    4.40
  -2  11  -6  227.88   17.10
   2 -11   6  236.78   18.40
   3 -11   6   22.50    4.60
  -4  11  -6   21.50    4.70
   4 -11   6   22.00    4.50
  -5  11  -6  187.68   11.00
   5 -11   6  167.98   10.70
  -6  11  -6   94.89    8.40
   6 -11   6   83.39    7.90
  -7  11  -6   30.40    5.80
   7 -11   6   35.20    5.90
  -8  11  -6   35.60    6.20
   7  10  -6  229.28   15.60
   7  10  -6  224.48   13.30
   6  10  -6   16.60    4.90
   6  10  -6   27.10    5.10
   6  10  -6   24.00    3.40
  -6 -10   6   30.10    5.80
   5  10  -6   89.19    8.00
   5  10  -6   84.89    8.50
  -5 -10   6   80.39    8.30
   4  10  -6  669.23   21.80
   4  10  -6  642.14   17.40
   4  10  -6  676.63   21.30
  -4 -10   6  678.83   21.60
   3  10  -6  455.35   15.90
   3  10  -6  462.55   17.30
   3  10  -6  434.36   14.20
  -3 -10   6  466.85   17.10
   2  10  -6    3.60    2.30
   2  10  -6    5.90    2.50
   2  10  -6    3.20    2.90
  -2 -10   6    6.70    2.40
   1  10  -6  230.98   11.50
   1  10  -6  231.78    9.70
   1  10  -6  249.48   11.00
  -1 -10   6  241.78   10.60
   0  10  -6  438.76   12.80
   0  10  -6  420.06   15.70
   0 -10   6  445.06   15.00
  -1  10  -6  167.78    6.90
  -1  10  -6  198.58   10.40
  -1  10  -6  176.78    6.90
   1 -10   6  169.38    9.40
  -2  10  -6   24.50    2.70
  -2  10  -6   20.20    2.40
  -2  10  -6   25.50    4.70
   2 -10   6   26.20    4.50
  -3  10  -6  453.75   16.50
   3 -10   6  450.45   16.30
  -4  10  -6  544.05   18.70
  -5  10  -6  410.96   19.30
   5 -10   6  405.36   16.20
  -6  10  -6    2.20    3.10
   6 -10   6    1.50    2.90
  -7  10  -6  282.07   13.90
   7 -10   6  261.07   13.60
  -8  10  -6  436.16   18.10
   8 -10   6  419.66   18.20
  -9  10  -6  195.78   12.80
   8   9  -6   15.50    4.70
  -8  -9   6   13.20    7.40
   7   9  -6   20.20    5.20
   7   9  -6   14.70    4.50
  -7  -9   6   13.90    4.20
   6   9  -6   28.20    5.70
   6   9  -6   28.90    5.30
  -6  -9   6   30.00    5.40
   5   9  -6  232.78   12.60
   5   9  -6  227.48    8.20
  -5  -9   6  215.98   11.80
   4   9  -6   70.39    5.00
   4   9  -6   69.69    6.20
   3   9  -6   59.29    5.00
   3   9  -6   51.49    5.60
   3   9  -6   50.79    6.20
  -3  -9   6   57.09    4.90
  -3  -9   6   59.39    6.40
   2   9  -6   97.49    7.50
   2   9  -6   93.79    7.50
   2   9  -6   88.39    6.30
  -2  -9   6   92.49    7.40
  -2  -9   6   84.29    5.90
   1   9  -6  938.91   24.50
   1   9  -6  929.51   21.30
  -1  -9   6  918.41   22.10
   0   9  -6   68.49    4.60
   0   9  -6   58.49    5.90
   0  -9   6   58.79    5.40
  -1   9  -6    5.10    1.70
  -1   9  -6    6.60    3.20
   1  -9   6    2.30    2.20
  -2   9  -6  237.38    6.30
  -2   9  -6  232.38   11.00
   2  -9   6  233.08   10.80
  -3   9  -6  310.17   13.00
   3  -9   6  313.07   12.90
  -4   9  -6  426.46   15.80
   4  -9   6  436.56   15.80
  -5   9  -6   85.89    7.80
   5  -9   6   96.19    8.70
  -6   9  -6  109.99   10.20
   6  -9   6   96.69    8.10
  -7   9  -6  489.15   18.40
   7  -9   6  459.35   18.10
  -8   9  -6   63.79    7.40
   8  -9   6   59.79    7.30
  -9   9  -6   68.19    8.60
   9  -9   6   47.80    7.20
   8   8  -6   37.10    6.50
  -8  -8   6   46.50    6.70
   7   8  -6  123.89    9.30
  -7  -8   6  124.99    9.40
   6   8  -6  643.64   24.10
   6   8  -6  620.24   13.10
   6   8  -6  565.74   12.90
  -6  -8   6  626.54   20.80
   5   8  -6  342.77    9.60
   5   8  -6  374.06   14.50
  -5  -8   6  335.37   21.10
   4   8  -6    8.00    2.20
   4   8  -6   11.40    3.00
   4   8  -6    6.90    1.90
   4   8  -6    4.30    2.60
  -4  -8   6    7.80    3.00
   3   8  -6  289.27    9.50
   3   8  -6  277.27   12.30
   3   8  -6  294.37   11.40
  -3  -8   6  267.77   11.90
  -3  -8   6  269.57    9.10
   2   8  -6  544.75   17.40
  -2  -8   6  570.44   14.70
  -2  -8   6  553.84   17.30
   1   8  -6 1423.16   31.70
   1   8  -6 1458.75   28.30
  -1  -8   6 1463.45   29.10
   0   8  -6  144.79    6.10
   0   8  -6  154.28    8.70
   0  -8   6  152.48    7.90
  -1   8  -6  517.15   11.60
  -1   8  -6  509.65   11.60
  -1   8  -6  554.44   16.90
   1  -8   6  531.85   15.60
  -2   8  -6 1697.73   27.10
  -2   8  -6 1732.03   27.00
  -2   8  -6 1796.32   36.70
   2  -8   6 1767.32   35.60
  -3   8  -6  785.82   21.70
   3  -8   6  792.02   21.20
  -4   8  -6    0.20    2.40
   4  -8   6    2.20    2.30
  -5   8  -6  600.64   19.30
   5  -8   6  608.14   19.30
  -6   8  -6  471.05   17.20
   6  -8   6  476.65   19.70
  -7   8  -6  173.08   10.50
   7  -8   6  173.48   10.80
  -8   8  -6   17.90    5.00
   8  -8   6   26.30    5.30
  -9   8  -6  168.18   11.30
   9  -8   6  197.98   12.20
 -10   8  -6  209.48   13.50
  10  -8   6  239.38   15.70
   9   7  -6   -4.90    2.20
  -9  -7   6    1.60    2.90
   8   7  -6   12.30    4.60
  -8  -7   6   19.90    4.60
   7   7  -6  127.49    9.20
  -7  -7   6  136.49    9.60
   6   7  -6  248.78    5.90
   6   7  -6  229.48    5.50
   6   7  -6  247.18   11.90
  -6  -7   6  253.47   19.00
   5   7  -6   10.30    3.40
   5   7  -6    3.80    2.40
   5   7  -6    7.20    1.50
   5   7  -6    5.50    1.50
  -5  -7   6    6.20    3.00
   4   7  -6    4.00    1.60
   4   7  -6   -0.40    1.30
   4   7  -6    4.40    2.40
   4   7  -6    6.40    2.80
  -4  -7   6    2.60    2.50
   3   7  -6  200.08    7.30
   3   7  -6  208.58    9.00
   3   7  -6  196.88    7.10
   3   7  -6  195.28    9.80
  -3  -7   6  192.98    8.10
  -3  -7   6  188.28    9.50
   2   7  -6  538.65   16.60
   2   7  -6  520.25   13.20
   2   7  -6  562.54   14.90
  -2  -7   6  543.05   13.50
  -2  -7   6  545.55   16.40
   1   7  -6    4.60    2.50
   1   7  -6    3.90    1.70
   1   7  -6    4.10    1.90
  -1  -7   6    6.10    2.10
   0   7  -6  105.99    4.90
   0   7  -6  114.09    7.10
   0   7  -6  115.99    5.20
   0  -7   6  116.89    6.30
  -1   7  -6  640.24   18.00
  -1   7  -6  639.34   12.50
   1  -7   6  624.04   23.70
  -2   7  -6  311.07   12.00
   2  -7   6  293.07   11.10
  -3   7  -6   89.89    6.70
   3  -7   6   85.69    6.30
  -4   7  -6  169.18    9.20
   4  -7   6  181.18    9.40
  -5   7  -6  212.88   10.60
   5  -7   6  222.58   10.90
  -6   7  -6  130.29    9.10
   6  -7   6  107.59    8.10
   7  -7   6    3.90    3.40
  -8   7  -6   88.69    8.00
   8  -7   6   84.79    7.80
  -9   7  -6  238.18   13.30
   9  -7   6  234.38   13.20
 -10   7  -6  103.49    9.30
  10  -7   6  120.79   10.20
  10   6  -6   73.29    8.40
 -10  -6   6  100.29    8.70
   9   6  -6   44.30    6.90
  -9  -6   6   40.20    6.00
   8   6  -6  331.27   15.00
  -8  -6   6  337.57   15.10
   7   6  -6  424.66   16.80
  -7  -6   6  419.46   19.50
   6   6  -6  254.47   11.70
  -6  -6   6  247.38   11.70
   5   6  -6    9.30    1.20
   5   6  -6   11.50    1.40
   5   6  -6    8.70    3.30
  -5  -6   6    8.90    3.10
   4   6  -6 1257.47   27.50
   4   6  -6 1184.78   20.80
   4   6  -6 1217.08   28.40
  -4  -6   6 1243.98   28.20
   3   6  -6 1127.39   20.80
   3   6  -6 1175.88   25.10
   3   6  -6 1181.28   26.90
  -3  -6   6 1149.08   21.00
  -3  -6   6 1117.99   25.90
   2   6  -6  133.89    7.50
   2   6  -6  127.09    6.30
   2   6  -6  121.29    7.40
  -2  -6   6  131.59    7.40
  -2  -6   6  123.19    5.40
   1   6  -6  138.19    5.80
   1   6  -6  146.89    7.70
   1   6  -6  148.89    6.20
  -1  -6   6  151.18    6.50
  -1  -6   6  151.28    6.20
   0   6  -6  466.85   10.70
   0   6  -6  449.36   10.90
   0   6  -6  487.75   14.60
   0  -6   6  462.55   10.90
   0  -6   6  479.55   12.90
  -1   6  -6  845.42   15.30
  -1   6  -6  835.12   15.10
  -1   6  -6  858.91   21.00
   1  -6   6  863.51   19.70
  -2   6  -6  176.58    8.60
  -3   6  -6  477.05   15.10
   3  -6   6  465.15   14.60
  -4   6  -6 1019.60   24.80
   4  -6   6 1028.40   24.70
  -5   6  -6  672.43   19.80
   5  -6   6  712.73   20.10
  -6   6  -6   -0.20    2.20
   6  -6   6    0.40    2.20
  -7   6  -6  115.89    8.50
   7  -6   6  117.29    8.50
  -8   6  -6 1354.76   33.50
   8  -6   6 1347.27   33.60
  -9   6  -6  288.87   14.30
   9  -6   6  312.17   14.90
 -10   6  -6    1.40    3.00
  10  -6   6   -1.50    3.10
  11   5  -6   -5.50    3.10
  10   5  -6   -2.50    2.10
 -10  -5   6    1.40    2.90
   9   5  -6  142.59   10.50
  -9  -5   6  151.88   10.40
   8   5  -6   83.19    7.80
  -8  -5   6   64.29    6.70
   7   5  -6   36.80    5.20
  -7  -5   6   48.00    5.70
   6   5  -6  133.09    8.20
  -6  -5   6  111.89    7.70
   5   5  -6  581.64   17.20
  -5  -5   6  567.74   17.30
   4   5  -6  323.57   12.20
   4   5  -6  318.27    6.60
   4   5  -6  314.67    6.60
   4   5  -6  324.17   11.60
  -4  -5   6  319.77   11.90
   3   5  -6    1.30    1.00
   3   5  -6   -0.30    1.60
   3   5  -6    2.70    1.60
  -3  -5   6    2.20    1.60
  -3  -5   6    2.20    1.90
   2   5  -6  479.05   12.60
   2   5  -6  461.75   14.20
   2   5  -6  435.86   10.40
  -2  -5   6  434.16   12.00
  -2  -5   6  451.35   14.00
  -2  -5   6  451.85   10.60
   1   5  -6   20.20    4.40
   1   5  -6   18.10    3.80
   1   5  -6   19.60    2.60
  -1  -5   6   19.60    2.70
  -1  -5   6   22.40    2.70
   0   5  -6  680.23   17.60
   0   5  -6  638.84   13.40
   0   5  -6  637.44   15.00
   0  -5   6  648.84   15.20
   0  -5   6  631.14   13.30
  -1   5  -6  112.59    3.90
  -1   5  -6  121.99    8.00
   1  -5   6  103.89    3.70
   1  -5   6  113.69    5.90
  -2   5  -6  485.65   15.00
  -2   5  -6  511.25    8.60
   2  -5   6  537.75   14.60
   2  -5   6  494.85    8.80
  -3   5  -6 1720.03   34.70
   3  -5   6 1752.72   34.30
  -4   5  -6  141.19    8.00
   4  -5   6  129.79    7.70
  -5   5  -6   57.99    5.80
   5  -5   6   51.09    5.30
  -6   5  -6   13.70    3.50
   6  -5   6   11.20    3.10
  -7   5  -6  720.83   21.60
   7  -5   6  694.13   21.00
   7  -5   6  685.03   11.80
  -8   5  -6  319.07   14.20
   8  -5   6  329.47   14.30
   8  -5   6  291.07    7.20
  -9   5  -6  130.29    9.70
   9  -5   6  122.59    5.10
   9  -5   6  137.19    9.90
 -10   5  -6   40.80    6.40
  10  -5   6   35.50    5.80
 -11   5  -6   71.39    8.20
  11  -5   6   62.19    9.10
  11   4  -6    1.20    2.90
 -11  -4   6    0.30    3.20
  10   4  -6  211.68   12.70
 -10  -4   6  225.28   12.40
   9   4  -6  291.47   14.10
  -9  -4   6  274.17   13.30
   8   4  -6   57.09    6.60
  -8  -4   6   62.89    7.00
   7   4  -6  304.77   13.10
  -7  -4   6  294.67   12.60
   6   4  -6  868.01   22.50
  -6  -4   6  824.42   21.90
   5   4  -6 1061.59   24.60
  -5  -4   6 1039.30   24.40
   4   4  -6  168.38    9.00
  -4  -4   6  173.98    8.30
   3   4  -6  476.15    9.60
   3   4  -6  503.35   13.70
  -3  -4   6  481.45    9.60
  -3  -4   6  500.35   16.40
   2   4  -6 2265.87   41.10
   2   4  -6 2265.77   39.80
   2   4  -6 2289.17   36.60
  -2  -4   6 2286.57   36.60
  -2  -4   6 2271.77   39.20
  -2  -4   6 2320.17   41.10
   1   4  -6 2686.53   46.20
   1   4  -6 2546.95   42.60
   1   4  -6 2694.03   43.40
  -1  -4   6 2658.03   43.30
  -1  -4   6 2618.34   42.80
   0   4  -6   83.59    4.50
   0   4  -6   81.69    5.40
   0   4  -6   84.79    4.00
   0  -4   6   80.79    3.90
  -1   4  -6  402.16   11.50
  -1   4  -6  411.16    8.90
  -1   4  -6  421.66   12.70
   1  -4   6  392.26    8.80
   1  -4   6  413.16   11.80
  -2   4  -6 3547.25   52.79
  -2   4  -6 3552.74   59.99
   2  -4   6 3514.15   52.89
   2  -4   6 3665.63   59.69
  -3   4  -6  866.21   13.90
  -3   4  -6  856.21   20.70
  -4   4  -6  470.45   14.70
   4  -4   6  456.25    8.50
   4  -4   6  480.25   14.90
   4  -4   6  461.65   10.50
  -5   4  -6  501.95   16.00
   5  -4   6  502.15    9.60
   5  -4   6  478.15    9.50
   5  -4   6  520.95   16.20
  -6   4  -6  586.24   18.00
   6  -4   6  574.84   11.50
   6  -4   6  577.04   18.20
  -7   4  -6 1174.48   28.80
   7  -4   6 1100.49   20.70
   7  -4   6 1106.69   20.60
   7  -4   6 1214.78   29.40
  -8   4  -6    3.50    2.90
   8  -4   6    3.00    3.00
  -9   4  -6   70.29    7.30
   9  -4   6   75.29    4.80
   9  -4   6   77.49    7.90
 -10   4  -6  153.18   10.80
  10  -4   6  156.18   10.90
  10  -4   6  147.09    7.30
 -11   4  -6  220.38   13.70
  11  -4   6  199.28   12.50
  11   3  -6   23.20    5.30
 -11  -3   6   24.60    5.30
  10   3  -6  122.69    9.50
 -10  -3   6  115.59    9.10
   9   3  -6   -1.90    2.20
  -9  -3   6    1.50    2.40
   8   3  -6  104.89    8.00
  -8  -3   6  104.89    7.80
   7   3  -6  954.60   24.90
  -7  -3   6  971.20   24.40
   6   3  -6  347.97   13.10
  -6  -3   6  330.97   12.40
   5   3  -6    3.50    2.10
  -5  -3   6    0.80    1.80
   4   3  -6    7.10    2.30
  -4  -3   6    8.20    2.40
   3   3  -6  950.70   15.90
   3   3  -6  932.81   20.50
   3   3  -6  938.51   21.00
  -3  -3   6  935.01   20.70
  -3  -3   6  925.61   15.80
   2   3  -6  210.68    8.20
   2   3  -6  200.48    5.90
  -2  -3   6  202.48    6.00
  -2  -3   6  194.28    7.30
  -2  -3   6  206.78    8.10
   1   3  -6  538.55   12.20
   1   3  -6  573.64   13.10
   1   3  -6  581.84   14.50
  -1  -3   6  549.65   12.90
  -1  -3   6  538.05   12.40
   0   3  -6  867.91   18.80
   0   3  -6  912.71   17.50
   0   3  -6  926.51   19.90
   0  -3   6  898.01   17.40
   0  -3   6  922.01   19.00
  -1   3  -6  828.62   18.90
  -1   3  -6  860.81   15.80
  -1   3  -6  796.02   18.10
   1  -3   6  842.72   15.80
   1  -3   6  851.71   18.60
  -2   3  -6  364.26   11.60
  -2   3  -6  376.56    9.50
   2  -3   6  382.96   11.70
   2  -3   6  368.86    8.50
  -3   3  -6   31.00    2.50
  -3   3  -6   26.60    3.70
   3  -3   6   30.20    4.60
   3  -3   6   21.50    2.10
  -4   3  -6  167.08    6.20
  -4   3  -6  172.38    8.60
   4  -3   6  178.28    8.70
   4  -3   6  172.78    5.40
   4  -3   6  173.98    5.50
  -5   3  -6  121.19    4.70
  -5   3  -6  112.09    7.50
   5  -3   6  124.39    4.90
   5  -3   6  124.99    7.60
   5  -3   6  125.19    4.90
  -6   3  -6  420.66   14.80
   6  -3   6  425.46   10.70
   6  -3   6  414.26   15.10
   6  -3   6  407.26   10.40
  -7   3  -6   -0.90    2.70
   7  -3   6    3.00    2.70
   7  -3   6    2.20    1.50
   7  -3   6    1.20    1.60
  -8   3  -6   15.30    4.10
   8  -3   6   19.10    3.10
   8  -3   6   15.70    7.00
  -9   3  -6  297.87   14.10
   9  -3   6  296.67   14.30
 -10   3  -6   47.50    7.00
  10  -3   6   43.00    6.80
  10  -3   6   43.70    5.10
  11  -3   6   -7.60    2.70
 -12  -2   6   51.39    7.30
  11   2  -6  230.98   13.60
 -11  -2   6  253.97   13.30
  10   2  -6   68.29    7.40
 -10  -2   6   81.29    7.40
  -9  -2   6   46.00    5.70
   8   2  -6  554.64   18.40
  -8  -2   6  549.54   17.50
   7   2  -6 1821.62   38.10
  -7  -2   6 1825.12   36.90
   6   2  -6  302.07   11.80
  -6  -2   6  292.97   11.10
   5   2  -6    2.20    1.90
  -5  -2   6   -0.90    2.20
   4   2  -6  213.68    8.90
  -4  -2   6  208.68    8.20
  -4  -2   6  196.08    4.00
  -4  -2   6  204.78    4.30
   3   2  -6 3451.35   56.49
   3   2  -6 3477.75   51.29
   3   2  -6 3383.06   55.99
  -3  -2   6 3289.67   55.49
  -3  -2   6 3395.16   51.19
   2   2  -6  952.80   17.50
   2   2  -6  941.71   20.00
   2   2  -6  946.21   22.40
   2   2  -6  931.91   19.70
  -2  -2   6  946.21   19.80
  -2  -2   6  949.01   19.80
  -2  -2   6  959.30   17.70
   1   2  -6  746.43   16.70
   1   2  -6  749.13   15.40
   1   2  -6  752.42   16.20
   1   2  -6  740.03   16.50
  -1  -2   6  738.03   16.60
  -1  -2   6  747.33   15.60
  -1  -2   6  761.02   18.20
   0   2  -6  653.83   14.10
   0   2  -6  634.44   14.50
   0   2  -6  629.24   14.80
   0   2  -6  646.14   15.20
   0  -2   6  649.34   14.00
   0  -2   6  655.83   16.80
   0  -2   6  622.84   14.80
  -1   2  -6 1996.40   35.70
  -1   2  -6 2053.09   35.90
  -1   2  -6 2022.20   33.40
   1  -2   6 1965.80   35.30
   1  -2   6 1986.20   33.40
   1  -2   6 2036.50   36.10
  -2   2  -6   82.19    5.30
  -2   2  -6   73.99    3.80
   2  -2   6   74.19    3.80
   2  -2   6   79.89    5.30
  -3   2  -6   13.20    2.00
  -3   2  -6   10.40    2.60
   3  -2   6   13.20    2.10
   3  -2   6   15.70    3.70
  -4   2  -6 2255.87   41.70
  -4   2  -6 2271.57   37.30
   4  -2   6 2223.28   37.30
   4  -2   6 2240.38   42.60
  -5   2  -6  133.59    8.00
  -5   2  -6  147.49    6.90
   5  -2   6  146.09    6.00
   5  -2   6  144.99    8.20
  -6   2  -6  179.18    9.60
  -6   2  -6  176.08    8.70
   6  -2   6  183.78    9.80
   6  -2   6  168.08    7.00
   6  -2   6  178.28    7.40
  -7   2  -6  431.16   15.70
   7  -2   6  447.66   12.90
   7  -2   6  425.36   15.90
  -8   2  -6  695.73   25.50
   8  -2   6  607.24   24.40
   8  -2   6  697.53   18.10
  -9   2  -6  271.37   13.40
   9  -2   6  282.47   13.80
   9  -2   6  262.97   10.70
 -10   2  -6   10.00    3.40
  10  -2   6    7.70    3.10
  10  -2   6   12.00    4.20
  12   1  -6   32.80    6.50
 -12  -1   6   24.50    5.50
  11   1  -6    5.80    3.50
 -11  -1   6    6.90    3.80
  10   1  -6   10.90    3.80
 -10  -1   6   18.20    4.20
   9   1  -6  217.58   13.40
  -9  -1   6  226.78   11.00
   8   1  -6  236.38   11.60
  -8  -1   6  248.38   11.20
   7   1  -6  117.69    8.10
  -7  -1   6  108.09    7.00
   6   1  -6   -0.50    2.00
  -6  -1   6    1.90    2.10
   5   1  -6   66.89    5.40
  -5  -1   6   65.89    5.00
  -5  -1   6   67.69    2.20
   4   1  -6  848.92   20.00
   4   1  -6  899.51   20.90
  -4  -1   6  838.12   14.80
  -4  -1   6  822.92   14.60
  -4  -1   6  819.42   18.40
   3   1  -6   25.30    2.20
   3   1  -6   20.30    3.10
   3   1  -6   18.30    2.60
   3   1  -6   18.60    2.60
  -3  -1   6   19.20    3.20
  -3  -1   6   21.70    2.30
   2   1  -6    7.40    2.20
   2   1  -6    6.50    1.70
   2   1  -6    5.70    1.90
   2   1  -6    6.10    1.50
  -2  -1   6    6.80    1.90
  -2  -1   6    5.10    1.50
  -2  -1   6    6.50    2.10
   1   1  -6 3621.24   58.19
   1   1  -6 3786.82   58.89
  -1  -1   6 3731.33   61.49
  -1  -1   6 3643.14   59.19
  -1  -1   6 3758.02   58.69
   0   1  -6   15.40    2.40
   0   1  -6   14.80    2.40
   0   1  -6   20.10    2.70
   0   1  -6   20.30    2.70
   0  -1   6   13.30    2.30
   0  -1   6   20.30    4.40
  -1   1  -6   25.20    3.80
  -1   1  -6   23.10    2.80
   1  -1   6   19.40    3.00
   1  -1   6   15.50    2.50
   1  -1   6   20.60    3.10
  -2   1  -6    7.50    1.90
  -2   1  -6   10.10    2.30
   2  -1   6    7.90    2.60
   2  -1   6   10.90    2.20
  -3   1  -6 1460.35   29.20
  -3   1  -6 1568.24   34.00
   3  -1   6 1503.25   31.40
   3  -1   6 1456.95   27.20
  -4   1  -6  487.45   17.00
  -4   1  -6  504.35   12.70
   4  -1   6  489.25   15.20
   4  -1   6  482.55   12.50
  -5   1  -6   34.00    4.50
  -5   1  -6   35.00    3.60
   5  -1   6   38.80    3.90
   5  -1   6   46.70    5.10
  -6   1  -6  225.98    8.80
  -6   1  -6  245.78   11.10
   6  -1   6  235.78    9.30
   6  -1   6  239.68   11.50
  -7   1  -6  390.06   12.40
  -7   1  -6  365.26   14.40
   7  -1   6  389.86   12.90
   7  -1   6  386.86   15.40
  -8   1  -6  363.56   15.30
   8  -1   6  348.87   15.10
   8  -1   6  361.96   12.90
  -9   1  -6   -0.70    2.60
   9  -1   6    4.50    3.40
   9  -1   6   -4.70    2.00
 -10   1  -6   -2.10    3.10
  10  -1   6   -4.50    2.50
  10  -1   6   -5.00    2.30
  12   0  -6  141.39   10.60
 -12   0   6  132.99    9.70
  11   0  -6   42.40    7.00
 -11   0   6   56.09    6.40
  10   0  -6   55.99    7.60
 -10   0   6   68.79    6.90
   9   0  -6  680.13   21.40
  -9   0   6  676.83   19.70
   8   0  -6  170.88    9.70
  -8   0   6  159.08    8.40
  -8   0   6  152.88    3.90
   7   0  -6   69.79    6.70
  -7   0   6   71.69    2.80
  -7   0   6   70.89    5.80
  -7   0   6   74.19    2.90
   6   0  -6  545.85   16.50
  -6   0   6  527.05   10.50
  -6   0   6  544.95   10.60
  -6   0   6  568.24   15.00
   5   0  -6  986.80   23.00
  -5   0   6  962.20   20.60
  -5   0   6  967.80   17.20
   4   0  -6  277.47    8.70
   4   0  -6  301.67   10.60
  -4   0   6  280.97    7.50
  -4   0   6  284.57    7.40
   3   0  -6  193.78    6.80
   3   0  -6  185.08    6.20
   3   0  -6  201.78    8.20
   3   0  -6  189.18    7.70
  -3   0   6  182.48    6.50
  -3   0   6  183.18    6.00
  -3   0   6  182.58    6.20
   2   0  -6 1282.37   23.10
   2   0  -6 1276.77   25.50
   2   0  -6 1240.48   23.40
   2   0  -6 1284.67   23.30
  -2   0   6 1243.18   23.50
   1   0  -6 2201.88   36.40
   1   0  -6 2182.48   37.80
   1   0  -6 2232.98   36.70
   1   0  -6 2217.38   38.70
  -1   0   6 2179.18   38.40
  -1   0   6 2237.88   36.60
   0   0  -6 3288.87   54.09
   0   0  -6 3266.57   51.99
   0   0  -6 3293.87   53.79
   0   0  -6 3323.77   52.39
   0   0   6 3242.28   51.99
   0   0   6 3389.06   54.59
   0   0   6 3216.48   53.49
  -1   0  -6  807.72   17.40
  -1   0  -6  817.12   17.60
   1   0   6  775.12   17.00
   1   0   6  812.52   18.80
   1   0   6  797.42   17.60
  -2   0  -6 1953.20   34.60
  -2   0  -6 1988.10   34.70
   2   0   6 1885.01   34.30
   2   0   6 1983.90   37.00
   2   0   6 1875.01   34.10
  -3   0  -6 2457.75   43.20
  -3   0  -6 2444.06   42.40
   3   0   6 2491.65   45.40
  -4   0  -6   39.30    4.10
   4   0   6   38.80    5.00
  -5   0  -6   15.10    3.20
  -5   0  -6   12.60    2.80
   5   0   6   17.40    3.70
  -6   0  -6 1563.74   31.60
  -6   0  -6 1544.35   33.30
   6   0   6 1556.44   34.90
   6   0   6 1593.84   32.50
  -7   0  -6  527.85   15.90
  -7   0  -6  538.15   17.70
   7   0   6  534.05   16.50
   7   0   6  510.45   18.20
  -8   0  -6  143.49    9.80
   8   0   6  146.39    9.80
   8   0   6  139.29    8.70
  -9   0  -6   26.30    5.20
   9   0   6   25.70    4.70
   9   0   6   33.70    6.10
 -10   0  -6  194.18   12.10
  10   0   6  204.98   12.40
  10   0   6  213.78   11.50
  12  -1  -6    9.60    4.70
 -12   1   6   14.50    4.10
  11  -1  -6  342.47   15.70
 -11   1   6  312.37    9.80
 -11   1   6  337.37   14.40
  10  -1  -6  176.28   11.00
 -10   1   6  159.58    9.30
 -10   1   6  161.28    5.60
 -10   1   6  161.08    6.00
   9  -1  -6    8.60    3.30
  -9   1   6   15.40    3.50
  -9   1   6   14.20    2.00
  -9   1   6   13.60    2.10
   8  -1  -6  225.98   11.30
  -8   1   6  249.18   10.20
  -8   1   6  228.68    6.80
  -8   1   6  229.58    6.80
   7  -1  -6  563.54   17.50
  -7   1   6  535.95   11.90
  -7   1   6  560.84   12.10
   6  -1  -6  165.18    8.80
  -6   1   6  154.68    5.60
  -6   1   6  155.48    7.00
  -6   1   6  150.98    5.60
   5  -1  -6  138.99    6.10
   5  -1  -6  150.58    8.00
  -5   1   6  141.99    5.40
  -5   1   6  154.48    6.50
  -5   1   6  135.39    5.40
   4  -1  -6  772.72   16.30
  -4   1   6  794.82   16.30
  -4   1   6  753.52   16.00
  -4   1   6  767.92   15.90
   3  -1  -6  837.82   16.30
   3  -1  -6  838.32   17.80
   3  -1  -6  836.12   19.80
   3  -1  -6  836.62   16.50
  -3   1   6  847.62   17.60
  -3   1   6  753.92   19.10
  -3   1   6  872.31   16.50
   2  -1  -6 1198.18   23.60
   2  -1  -6 1223.68   25.30
   2  -1  -6 1217.38   21.50
   2  -1  -6 1224.08   21.70
  -2   1   6 1222.98   26.80
   1  -1  -6   53.09    3.10
   1  -1  -6   54.79    4.40
   1  -1  -6   54.49    3.30
   1  -1  -6   59.89    4.20
  -1   1   6   51.99    4.10
   0  -1  -6   55.49    3.50
   0  -1  -6   43.30    4.00
   0   1   6   49.40    4.40
   0   1   6   43.90    3.00
  -1  -1  -6  250.77    9.00
  -1  -1  -6  247.68    7.80
   1   1   6  242.78    7.50
   1   1   6  243.68    9.50
  -2  -1  -6 1646.64   31.20
  -2  -1  -6 1634.74   30.20
   2   1   6 1622.44   32.70
   2   1   6 1563.34   29.10
  -3  -1  -6   31.60    3.70
  -3  -1  -6   37.60    4.10
   3   1   6   45.00    4.80
  -4  -1  -6    9.50    3.90
  -4  -1  -6    3.10    2.20
   4   1   6    4.20    2.50
  -5  -1  -6  267.77   10.40
  -5  -1  -6  258.97   10.50
   5   1   6  236.58   11.40
  -6  -1  -6  929.61   23.70
  -6  -1  -6  946.01   23.10
   6   1   6  932.41   25.40
   6   1   6  940.51   23.70
  -7  -1  -6    7.00    2.70
  -7  -1  -6    7.60    3.20
   7   1   6    3.70    2.70
  -8  -1  -6  119.79    8.80
  -8  -1  -6  120.39    7.90
   8   1   6  107.29    8.80
   8   1   6  107.09    8.20
  -9  -1  -6   33.00    5.80
   9   1   6   34.30    5.60
   9   1   6   31.10    5.90
  12  -2  -6  128.89   10.30
 -12   2   6  140.19    9.70
  11  -2  -6  371.56   16.40
 -11   2   6  371.16   15.10
 -11   2   6  357.16   10.50
  10  -2  -6  243.38   12.60
 -10   2   6  233.48   11.00
 -10   2   6  241.68    8.30
 -10   2   6  221.38    8.20
   9  -2  -6   50.09    6.20
  -9   2   6   62.99    5.60
  -9   2   6   57.79    4.80
  -9   2   6   53.69    4.10
   8  -2  -6  155.88    9.40
  -8   2   6  159.58    7.90
  -8   2   6  147.09    6.10
   7  -2  -6  827.02   22.60
  -7   2   6  842.62   17.80
  -7   2   6  844.32   19.30
   6  -2  -6  586.64   17.50
   6  -2  -6  575.64   14.10
  -6   2   6  558.64   13.50
  -6   2   6  580.94   14.10
   5  -2  -6    4.30    2.40
  -5   2   6    3.30    1.50
  -5   2   6    2.20    1.40
  -5   2   6    1.40    1.40
   4  -2  -6  943.41   22.40
   4  -2  -6  919.41   17.50
   4  -2  -6  914.41   17.70
  -4   2   6  963.20   19.90
  -4   2   6  930.71   17.60
  -4   2   6  889.81   19.10
   3  -2  -6 1971.00   32.00
   3  -2  -6 1916.01   31.00
   3  -2  -6 1923.81   34.70
  -3   2   6 1866.61   34.20
  -3   2   6 1952.50   35.00
   2  -2  -6  129.49    7.10
   2  -2  -6  128.89    4.40
   2  -2  -6  130.09    4.20
  -2   2   6  142.39    6.60
   1  -2  -6   12.20    1.90
   1  -2  -6   13.40    2.90
   1  -2  -6   14.80    1.70
  -1   2   6    7.90    2.00
   0  -2  -6  518.15   11.10
   0  -2  -6  499.45   14.30
   0   2   6  523.95   14.80
   0   2   6  505.85   10.90
  -1  -2  -6  207.88   10.30
  -1  -2  -6  218.78    6.90
   1   2   6  210.68    9.20
   1   2   6  196.38    6.50
  -2  -2  -6  346.07   11.60
   2   2   6  337.37    9.70
   2   2   6  346.67   12.50
  -3  -2  -6   33.10    3.70
  -3  -2  -6   24.10    3.70
   3   2   6   31.40    4.60
  -4  -2  -6  737.63   20.80
  -4  -2  -6  721.63   19.20
   4   2   6  735.53   21.00
  -5  -2  -6  630.44   17.80
  -5  -2  -6  665.73   18.70
   5   2   6  664.03   20.40
  -6  -2  -6  255.57   11.20
  -6  -2  -6  242.48   11.00
   6   2   6  234.38   12.00
   6   2   6  246.88   11.80
  -7  -2  -6   28.80    4.60
  -7  -2  -6   24.30    4.70
   7   2   6   17.50    4.30
   7   2   6   21.30    4.30
  -8  -2  -6  401.36   15.90
  -8  -2  -6  383.06   15.30
   8   2   6  393.06   16.80
   8   2   6  416.36   16.40
  -9  -2  -6  183.38   11.30
   9   2   6  182.68   12.00
   9   2   6  172.98   12.30
  12  -3  -6   90.19    8.90
 -12   3   6   74.49    7.10
  11  -3  -6    6.90    2.20
  11  -3  -6   13.50    4.80
 -11   3   6   11.30    3.90
  10  -3  -6   -2.10    2.50
 -10   3   6    0.40    2.20
 -10   3   6    1.60    2.10
   9  -3  -6  124.59   10.40
  -9   3   6  125.29    6.70
  -9   3   6  141.39    7.70
   8  -3  -6  547.35   18.30
  -8   3   6  521.55   14.30
  -8   3   6  550.24   17.40
  -7   3   6   30.30    3.40
  -7   3   6   22.30    3.20
   6  -3  -6    2.50    1.60
   6  -3  -6    2.80    2.80
  -6   3   6    0.40    1.70
   5  -3  -6  337.87   12.80
   5  -3  -6  327.27    8.60
  -5   3   6  319.47   10.60
  -5   3   6  317.77    8.40
   4  -3  -6  747.93   14.00
   4  -3  -6  763.82   20.10
  -4   3   6  749.23   14.90
  -4   3   6  781.32   18.40
   3  -3  -6   77.39    2.80
   3  -3  -6   80.29    2.90
   3  -3  -6   74.69    5.90
  -3   3   6   74.99    5.20
   2  -3  -6   76.49    2.50
   2  -3  -6   75.59    5.80
  -2   3   6   74.69    5.30
   1  -3  -6  525.35    9.40
   1  -3  -6  505.05    9.30
   1  -3  -6  485.75   14.80
  -1   3   6  510.35   15.40
   0  -3  -6    4.30    1.30
   0  -3  -6    3.10    2.20
   0   3   6    0.80    2.00
   0   3   6    1.50    0.90
  -1  -3  -6   21.10    2.50
  -1  -3  -6   27.50    4.10
   1   3   6   19.40    2.30
   1   3   6   18.80    3.60
  -2  -3  -6  500.75   15.30
  -2  -3  -6  516.25   14.20
   2   3   6  508.45   16.20
   2   3   6  485.15   12.10
  -3  -3  -6  277.07   11.40
  -3  -3  -6  286.27    9.50
   3   3   6  268.87   11.90
  -4  -3  -6  711.93   20.00
   4   3   6  730.13   21.40
  -5  -3  -6   -2.30    2.00
  -5  -3  -6    3.20    2.60
   5   3   6    1.70    2.80
  -6  -3  -6   79.59    6.60
  -6  -3  -6   84.29    6.90
   6   3   6   74.19    7.30
   6   3   6   76.19    7.50
  -7  -3  -6   38.10    5.70
  -7  -3  -6   26.50    4.70
   7   3   6   36.70    6.50
   7   3   6   34.20    6.10
  -8  -3  -6  176.98   10.70
  -8  -3  -6  173.88   10.50
   8   3   6  178.38   11.60
   8   3   6  159.88   11.40
  12  -4  -6   78.89    6.50
  12  -4  -6   70.69    7.80
 -12   4   6   64.49    6.20
 -12   4   6   73.09    6.80
  11  -4  -6   11.70    2.90
  11  -4  -6   12.60    4.30
 -11   4   6    7.10    2.90
 -11   4   6    9.10    3.00
  10  -4  -6   32.30    4.20
  10  -4  -6   40.40    6.10
 -10   4   6   40.30    4.80
 -10   4   6   42.70    4.90
   9  -4  -6  406.86   16.60
  -9   4   6  399.16   13.10
  -9   4   6  387.86   12.80
   8  -4  -6  235.48   11.80
  -8   4   6  243.38    9.00
  -8   4   6  233.18    9.80
   7  -4  -6    0.80    2.30
  -7   4   6   -0.10    1.40
  -7   4   6    0.40    1.80
   6  -4  -6  270.17    8.00
   6  -4  -6  296.57   12.50
  -6   4   6  271.47    7.90
  -6   4   6  275.77   10.50
   5  -4  -6  344.97    8.10
   5  -4  -6  360.46   13.70
  -5   4   6  354.96   12.10
  -5   4   6  341.07    8.60
   4  -4  -6  965.10   15.50
   4  -4  -6 1020.80   24.80
  -4   4   6 1022.20   23.40
   3  -4  -6    0.40    2.40
  -3   4   6   -0.90    1.80
   2  -4  -6 1497.25   32.00
  -2   4   6 1534.15   31.80
   1  -4  -6  699.53   19.20
  -1   4   6  717.13   19.30
   0  -4  -6  101.39    7.00
   0  -4  -6  104.69    3.30
   0  -4  -6  105.39    3.30
   0   4   6  105.79    7.20
   0   4   6  107.89    3.20
  -1  -4  -6   -1.50    1.90
  -1  -4  -6    0.20    1.10
   1   4   6    5.30    2.60
   1   4   6   -0.30    1.10
  -2  -4  -6  752.72   20.40
  -2  -4  -6  732.43   15.80
   2   4   6  738.13   21.10
  -3  -4  -6 1420.36   32.10
  -3  -4  -6 1463.25   27.80
   3   4   6 1455.55   33.50
  -4  -4  -6  110.69    7.80
   4   4   6  123.79    8.60
  -5  -4  -6    4.40    2.90
  -5  -4  -6    5.60    2.50
   5   4   6    1.30    2.80
  -6  -4  -6  410.26   14.70
  -6  -4  -6  406.56   16.10
   6   4   6  444.06   17.60
   6   4   6  409.56   17.10
  -7  -4  -6   69.69    8.20
  -7  -4  -6   88.39    8.00
   7   4   6   82.39    8.00
   7   4   6   85.19    8.30
  -8  -4  -6   44.60    6.10
  -8  -4  -6   69.89    7.50
   8   4   6   42.60    6.90
   8   4   6   44.60    7.00
  11  -5  -6  240.78   13.50
  11  -5  -6  223.28   10.20
 -11   5   6  226.58   10.50
 -11   5   6  209.18   10.50
  10  -5  -6   12.50    4.50
  10  -5  -6   21.40    3.80
 -10   5   6   25.50    4.00
 -10   5   6   11.60    3.60
   9  -5  -6   67.49    7.20
  -9   5   6   72.39    5.40
  -9   5   6   64.89    6.00
   8  -5  -6  197.48   13.30
  -8   5   6  184.88    7.30
  -8   5   6  202.68    9.60
   7  -5  -6  488.45   17.50
  -7   5   6  493.75   11.70
  -7   5   6  489.85   15.70
   6  -5  -6  372.16    8.70
   6  -5  -6  391.26   15.10
  -6   5   6  382.66   13.50
   5  -5  -6   17.00    3.90
   4  -5  -6  248.38   11.40
  -4   5   6  230.48   10.30
   3  -5  -6   13.10    3.70
  -3   5   6   18.40    4.00
   2  -5  -6 1218.08   28.50
  -2   5   6 1220.38   28.40
   1  -5  -6    2.60    2.40
  -1   5   6    3.90    2.40
   0  -5  -6   16.90    3.90
   0   5   6   17.00    3.90
  -1  -5  -6  960.00   24.80
   1   5   6  976.90   17.20
   1   5   6  987.30   25.70
  -2  -5  -6  478.25   16.40
  -2  -5  -6  483.75   11.50
   2   5   6  474.25   17.20
  -3  -5  -6  136.19    6.30
  -3  -5  -6  129.19    8.60
   3   5   6  126.89    9.20
  -4  -5  -6  112.99    8.30
  -4  -5  -6   99.49    7.40
   4   5   6   95.29    8.40
  -5  -5  -6   91.19    6.50
  -5  -5  -6   98.99    7.90
   5   5   6  100.09    8.70
  -6  -5  -6  110.09    8.60
  -6  -5  -6  104.89    7.50
   6   5   6  102.39    9.00
   6   5   6  107.89    9.40
  -7  -5  -6   43.60    5.90
  -7  -5  -6   40.80    6.40
   7   5   6   40.90    6.60
   7   5   6   31.00    6.10
  11  -6  -6   86.19    8.60
  11  -6  -6   72.59    6.60
 -11   6   6   73.69    6.10
 -11   6   6   73.09    7.40
  10  -6  -6   94.19    9.20
  10  -6  -6  101.89    7.40
 -10   6   6  111.19    8.30
 -10   6   6  109.69    6.50
   9  -6  -6    3.30    3.10
  -9   6   6    3.90    2.90
  -9   6   6    6.60    2.10
   8  -6  -6   18.40    3.30
   8  -6  -6   15.50    4.90
  -8   6   6   15.40    3.80
   7  -6  -6  757.72   14.80
  -7   6   6  746.83   16.50
  -7   6   6  775.42   21.70
   6  -6  -6  296.67   13.50
  -6   6   6  316.37   12.90
   5  -6  -6    0.50    2.50
  -5   6   6    1.00    2.20
   4  -6  -6  429.36   15.90
  -4   6   6  447.46   15.60
   3  -6  -6  342.07   13.90
  -3   6   6  342.47   13.60
   2  -6  -6  303.57   13.00
  -2   6   6  322.17   13.30
   1  -6  -6   25.40    4.90
  -1   6   6   24.50    4.40
   0  -6  -6  369.06   14.60
   0   6   6  377.96   14.90
  -1  -6  -6  503.45   17.40
  -1  -6  -6  496.45    9.40
   1   6   6  504.05   18.10
   1   6   6  501.45    9.30
  -2  -6  -6  250.37    7.30
  -2  -6  -6  252.37   14.40
   2   6   6  251.37    7.40
   2   6   6  255.97   13.20
  -3  -6  -6   32.40    3.60
  -3  -6  -6   31.10    5.10
   3   6   6   35.50    5.80
  -4  -6  -6   34.50    4.00
  -4  -6  -6   37.80    5.80
   4   6   6   24.20    5.30
  -5  -6  -6  469.95   14.60
  -5  -6  -6  475.45   18.10
   5   6   6  428.66   18.00
  -6  -6  -6   20.60    4.20
  -6  -6  -6   29.30    5.60
   6   6   6   16.80    4.90
   6   6   6   23.50    5.60
  10  -7  -6    9.90    4.20
 -10   7   6   15.30    4.40
   9  -7  -6  121.79   10.10
  -9   7   6  142.79    9.60
  -9   7   6  127.59    5.70
   8  -7  -6  115.49    9.30
  -8   7   6  110.29    4.80
   7  -7  -6   71.29    7.80
  -7   7   6   82.99    7.10
   6  -7  -6    0.00    2.60
  -6   7   6    0.90    2.80
  -5   7   6  262.87   12.60
   4  -7  -6  182.18   12.20
  -4   7   6  165.18   10.20
   3  -7  -6   30.30    5.90
  -3   7   6   36.20    5.40
  -2   7   6  382.46   16.00
   1  -7  -6    7.00    5.10
  -1   7   6    2.50    5.40
   0  -7  -6  448.56   17.00
   0   7   6  499.95   18.40
  -1  -7  -6   -1.60    2.00
   1   7   6    3.80    2.80
  -2  -7  -6   28.90    5.20
  -2  -7  -6   31.70    2.90
   2   7   6   29.20    5.60
  -3  -7  -6  180.58    6.90
  -3  -7  -6  181.18   11.10
   3   7   6  170.18   11.20
  -4  -7  -6  105.79    6.90
  -4  -7  -6  108.89    9.00
   4   7   6  106.99    9.90
  -5  -7  -6    0.60    2.50
  -5  -7  -6    4.40    3.10
   5   7   6    3.30    3.30
   5   7   6   -2.80    3.10
   9  -8  -6   36.80    6.10
  -9   8   6   49.90    7.80
   8  -8  -6  247.58   13.40
  -8   8   6  246.88   13.00
   7  -8  -6   -3.80    2.50
  -7   8   6    4.20    2.70
   6  -8  -6   43.30    6.40
  -6   8   6   66.19    7.20
   5  -8  -6  117.09    9.20
  -5   8   6  121.89    9.20
   4  -8  -6   88.19    8.20
  -4   8   6   66.49    7.00
   3  -8  -6   13.80    3.90
  -3   8   6    2.60    3.00
   2  -8  -6   86.49    8.10
  -2   8   6   90.39    8.20
   1  -8  -6  179.28   10.80
  -1   8   6  175.58   11.40
   0  -8  -6  172.28   10.70
   0   8   6  141.79   10.50
  -1  -8  -6    9.20    3.60
   1   8   6    5.20    3.70
  -2  -8  -6  381.56   16.50
   2   8   6  385.66   17.40
  -3  -8  -6  186.98   11.90
   3   8   6  194.28   12.50
  -4  -8  -6   37.80    7.70
   8  -9  -6   92.59    9.10
  -8   9   6   98.29    9.30
   7  -9  -6  132.19   10.00
  -7   9   6  132.99   10.40
   6  -9  -6  125.79    9.70
  -6   9   6  129.79   10.30
   5  -9  -6   13.40    4.30
  -5   9   6    9.40    3.80
   4  -9  -6    7.00    3.60
  -4   9   6   13.10    3.70
   3  -9  -6  384.06   16.60
  -3   9   6  342.27   16.10
   2  -9  -6  105.89    9.00
  -2   9   6  117.59   10.20
   1  -9  -6   43.30    6.40
  -1   9   6   41.80    6.40
   0  -9  -6   78.39    8.20
   0   9   6   78.79    8.10
  -1  -9  -6   50.89    7.40
   1   9   6   70.79    8.30
  -6  10   6   57.29    8.10
   5 -10  -6    7.20    3.80
  -5  10   6    7.80    4.10
   4 -10  -6   67.29    7.80
  -4  10   6   45.50    7.00
   3 -10  -6  245.88   13.70
  -3  10   6  221.48   13.70
   2 -10  -6  127.39   10.10
  -2  10   6  100.89   14.90
  -1  10   6    7.20    4.70
   0  13  -7   72.89    8.20
   0  13  -7   68.89    7.80
   0  13  -7   79.19    6.20
   0 -13   7   71.19    7.50
  -1  13  -7   78.59    8.70
  -1  13  -7  101.69    9.10
  -2  13  -7   18.70    5.20
   2 -13   7   17.80    4.10
  -3  13  -7  145.79   10.50
   3 -13   7  154.78   10.80
   3  12  -7   11.30    3.90
   3  12  -7   11.10    4.30
   3  12  -7   15.10    3.90
   2  12  -7  309.47   15.30
   2  12  -7  350.96   13.70
   2  12  -7  314.47   13.60
  -2 -12   7  331.37   13.30
   1  12  -7  298.17   14.40
   1  12  -7  281.57   14.80
   1  12  -7  270.97   11.40
  -1 -12   7  281.17   14.90
   0  12  -7   40.30    6.30
   0  12  -7   48.90    6.50
   0  12  -7   46.80    4.80
   0 -12   7   53.89    6.90
  -1  12  -7    6.40    3.70
  -1  12  -7    3.40    2.00
   1 -12   7    2.80    3.30
  -2  12  -7  539.15   19.80
   2 -12   7  496.75   18.30
  -3  12  -7  512.65   19.40
   3 -12   7  511.15   19.30
  -4  12  -7   18.70    5.20
   4 -12   7   34.10    5.40
  -5  12  -7   60.39    7.30
   5 -12   7   72.69    8.00
  -6  12  -7  246.88   14.00
   6 -12   7  247.28   21.70
   5  11  -7   66.69    7.50
   5  11  -7   55.69    8.10
  -5 -11   7   76.09    8.60
   4  11  -7   -5.30    2.00
   4  11  -7   -0.60    2.90
   4  11  -7   -1.50    2.90
  -4 -11   7   -2.10    2.60
   3  11  -7   43.60    5.20
   3  11  -7   27.90    5.20
   3  11  -7   54.39    7.40
   2  11  -7  224.98   10.50
   2  11  -7  213.48   10.20
   2  11  -7  210.88   12.00
  -2 -11   7  211.68   10.10
   1  11  -7   75.49    5.90
   1  11  -7   67.39    6.60
   1  11  -7   74.59    7.50
  -1 -11   7   81.49    6.90
   0  11  -7   37.30    5.80
   0 -11   7   49.00    5.80
  -1  11  -7   72.99    4.60
  -1  11  -7   68.39    7.60
   1 -11   7   80.79    6.80
  -2  11  -7  359.16   15.50
  -2  11  -7  350.86    9.40
   2 -11   7  350.96   17.40
  -3  11  -7  159.88   10.40
   3 -11   7  156.08    9.90
  -4  11  -7    7.30    3.60
   4 -11   7    5.80    3.20
  -5  11  -7   41.10    6.60
   5 -11   7   42.10    6.20
  -6  11  -7  195.98   12.30
   6 -11   7  169.08   11.30
  -7  11  -7   61.79    7.60
   7 -11   7   48.70    7.40
   6  10  -7  157.48   11.00
   6  10  -7  139.39   10.40
  -6 -10   7  150.18   10.50
   5  10  -7    7.30    3.60
   5  10  -7   -0.80    1.60
   5  10  -7   -1.70    2.70
  -5 -10   7   -0.10    2.70
   4  10  -7  401.36   16.90
   4  10  -7  386.26   15.10
  -4 -10   7  398.36   16.60
   3  10  -7  460.85   15.80
   3  10  -7  487.55   18.20
   3  10  -7  447.16   14.10
  -3 -10   7  457.75   13.80
  -3 -10   7  443.36   17.20
   2  10  -7  102.19    8.20
   2  10  -7   77.79    6.00
   2  10  -7   73.39    6.10
  -2 -10   7   70.69    6.00
   1  10  -7   -4.30    1.80
  -1 -10   7    0.40    2.10
   0  10  -7  302.07   16.20
   0  10  -7  309.47   10.20
   0 -10   7  323.67   12.60
  -1  10  -7  719.93   18.20
  -1  10  -7  712.23   22.50
  -1  10  -7  746.33   17.00
   1 -10   7  732.73   20.60
  -2  10  -7  111.59    4.70
  -2  10  -7  115.39    4.00
  -2  10  -7  135.99   11.20
   2 -10   7  120.99    8.50
  -3  10  -7   28.00    6.30
   3 -10   7   32.90    5.20
  -4  10  -7  359.96   15.30
   4 -10   7  347.67   14.80
  -5  10  -7  680.93   22.20
   5 -10   7  683.03   22.10
  -6  10  -7   94.19    9.00
   6 -10   7  104.79    9.00
  -7  10  -7   26.20    5.40
   7 -10   7   44.00    7.00
  -8  10  -7  316.57   16.00
   8 -10   7  294.07   15.70
   7   9  -7   30.50    5.70
   7   9  -7   35.70    6.50
  -7  -9   7   35.80    6.10
   6   9  -7    6.80    3.50
   6   9  -7    0.70    3.10
  -6  -9   7    5.30    3.50
   5   9  -7   81.89    8.30
  -5  -9   7   75.29    7.70
   4   9  -7   82.89    7.80
   4   9  -7   58.89    6.20
   4   9  -7   64.89    4.70
  -4  -9   7   70.29    7.00
   3   9  -7  177.68    9.10
   3   9  -7  156.78    7.40
  -3  -9   7  177.48    7.70
   2   9  -7   24.10    3.80
   2   9  -7   29.20    5.10
  -2  -9   7   27.40    3.90
   1   9  -7  137.39    8.90
   1   9  -7  121.39    6.60
  -1  -9   7  136.49    7.40
   0   9  -7  418.46   15.60
   0   9  -7  391.56   11.20
   0   9  -7  401.76   11.00
   0  -9   7  396.06   13.40
  -1   9  -7    8.60    3.40
  -1   9  -7   13.60    2.00
   1  -9   7    9.00    2.70
  -2   9  -7   15.60    1.40
  -2   9  -7   15.70    4.00
   2  -9   7    9.80    3.20
  -3   9  -7  110.59    8.30
   3  -9   7  115.29    8.20
  -4   9  -7  519.65   18.60
   4  -9   7  506.65   17.70
  -5   9  -7  325.07   14.50
   5  -9   7  295.87   13.70
  -6   9  -7    4.10    3.70
   6  -9   7    3.00    2.80
  -7   9  -7  263.67   13.70
   7  -9   7  271.27   13.90
  -8   9  -7  110.69    9.70
   8  -9   7  114.69    9.40
  -9   9  -7   68.89    9.80
   8   8  -7  143.89   10.70
  -8  -8   7  156.98   10.80
   7   8  -7   23.60    5.60
   7   8  -7   29.10    5.70
  -7  -8   7   35.00    6.00
   6   8  -7  334.77   15.20
   6   8  -7  328.57   14.60
  -6  -8   7  339.97   14.90
   5   8  -7  320.27    8.40
   5   8  -7  308.07    8.20
   5   8  -7  344.37   14.00
   5   8  -7  344.97   14.80
  -5  -8   7  330.87   14.20
   4   8  -7   56.49    5.70
   4   8  -7   63.69    4.10
   4   8  -7   74.99    7.00
   4   8  -7   67.39    6.30
  -4  -8   7   63.89    6.50
   3   8  -7   88.29    7.60
   3   8  -7   85.29    5.00
   3   8  -7   90.49    6.50
   3   8  -7   86.59    5.60
  -3  -8   7   84.19    7.30
  -3  -8   7   72.09    4.70
   2   8  -7  222.48   11.00
  -2  -8   7  227.88    8.60
   1   8  -7  735.43   17.40
   1   8  -7  761.02   21.20
  -1  -8   7  733.33   18.60
   0   8  -7  534.45   12.70
   0   8  -7  566.74   17.80
   0   8  -7  538.25   17.80
   0  -8   7  543.75   15.50
  -1   8  -7  178.28    9.70
  -1   8  -7  168.98    5.70
  -1   8  -7  169.38    5.50
   1  -8   7  168.38    8.60
  -2   8  -7 1251.07   29.60
   2  -8   7 1235.48   28.30
  -3   8  -7  826.12   23.20
   3  -8   7  848.42   22.60
  -4   8  -7  499.15   17.30
   4  -8   7  475.65   16.60
  -5   8  -7  206.68   11.40
   5  -8   7  181.38   10.40
  -6   8  -7  216.28   11.90
   6  -8   7  233.08   12.10
  -7   8  -7  397.96   16.80
   7  -8   7  401.76   16.70
  -8   8  -7  125.29    9.70
   8  -8   7  115.59    9.10
  -9   8  -7   41.40    6.70
   9  -8   7   42.70    6.60
   9   7  -7    7.90    4.20
  -9  -7   7   10.30    3.90
   8   7  -7    3.90    3.50
  -8  -7   7    4.30    3.60
   7   7  -7  119.29    9.20
  -7  -7   7  124.09    9.20
   6   7  -7  236.68   12.70
   6   7  -7  226.48   11.50
  -6  -7   7  234.48   12.30
   5   7  -7    5.80    1.20
   5   7  -7    6.70    2.90
   5   7  -7   11.90    3.10
   5   7  -7    7.60    1.20
  -5  -7   7    4.80    3.00
   4   7  -7   -0.40    2.40
   4   7  -7   -0.20    1.20
   4   7  -7   -1.20    1.10
   4   7  -7   -0.90    1.80
  -4  -7   7    0.90    1.00
  -4  -7   7    0.40    2.20
   3   7  -7  119.49    7.20
   3   7  -7  124.69    6.30
   3   7  -7  156.38    9.00
  -3  -7   7  124.79    5.90
  -3  -7   7  120.39    7.90
   2   7  -7  166.88    7.70
   2   7  -7  165.88    9.20
   2   7  -7  177.98    6.90
  -2  -7   7  174.48    7.00
  -2  -7   7  158.48    8.90
   1   7  -7  194.98    7.60
   1   7  -7  180.38    9.40
   1   7  -7  198.38    7.30
  -1  -7   7  183.78    7.30
  -1  -7   7  183.88    7.70
   0   7  -7    1.30    1.20
   0   7  -7    1.70    2.40
   0   7  -7    0.30    1.30
   0  -7   7   -0.70    1.80
  -1   7  -7  247.18   10.90
  -1   7  -7  237.58    6.40
   1  -7   7  238.48    9.70
  -2   7  -7  747.93   20.70
   2  -7   7  737.63   19.60
  -3   7  -7   88.19    7.40
   3  -7   7   94.09    6.70
  -4   7  -7    0.90    2.70
   4  -7   7   -0.10    2.00
  -5   7  -7    8.70    3.40
   5  -7   7    8.70    3.10
   6  -7   7  539.65   27.50
  -7   7  -7   42.00    6.20
   7  -7   7   47.10    6.50
  -8   7  -7    1.70    2.90
   8  -7   7    7.50    3.70
  -9   7  -7  176.38   11.60
   9  -7   7  181.58   11.70
 -10   7  -7   98.99   16.50
  10   6  -7  102.49   16.50
   9   6  -7   11.10    4.20
  -9  -6   7   15.60    4.20
   8   6  -7  266.17   13.50
  -8  -6   7  266.47   13.40
  -7  -6   7  411.06   16.30
   6   6  -7  487.25   17.00
  -6  -6   7  492.55   17.30
   5   6  -7  167.88    9.20
   5   6  -7  159.68    9.60
  -5  -6   7  162.18    9.40
   4   6  -7  631.44   12.20
   4   6  -7  657.33   19.40
   4   6  -7  659.23   18.20
   4   6  -7  628.94   13.00
  -4  -6   7  633.34   19.00
   3   6  -7  795.12   16.00
   3   6  -7  828.02   21.80
  -3  -6   7  824.92   21.50
  -3  -6   7  831.22   16.30
   2   6  -7  488.85   13.60
   2   6  -7  490.15   12.40
   2   6  -7  488.65   15.60
  -2  -6   7  501.75   15.50
  -2  -6   7  505.05   13.40
   1   6  -7   59.49    4.00
   1   6  -7   69.49    4.40
   1   6  -7   69.19    5.90
  -1  -6   7   72.19    4.60
  -1  -6   7   64.29    4.30
   0   6  -7  504.35   11.60
   0   6  -7  526.85   12.10
   0   6  -7  543.75   16.20
   0  -6   7  514.45   14.00
   0  -6   7  503.15   11.80
  -1   6  -7 1810.12   36.40
  -1   6  -7 1744.03   28.70
  -1   6  -7 1792.92   33.40
   1  -6   7 1817.22   35.10
   1  -6   7 1783.02   29.10
  -2   6  -7  223.58   10.30
   2  -6   7  224.18    9.60
  -3   6  -7    7.30    3.00
   3  -6   7    6.60    2.60
  -4   6  -7  515.65   16.90
   4  -6   7  486.45   16.20
  -5   6  -7  142.79    8.90
   5  -6   7  147.79    8.80
  -6   6  -7  395.66   15.70
   6  -6   7  431.06   16.00
  -7   6  -7   16.50    4.60
   7  -6   7   16.70    4.30
  -8   6  -7  688.83   22.80
   8  -6   7  714.83   23.10
  -9   6  -7  331.57   15.60
   9  -6   7  355.86   16.30
 -10   6  -7   69.09   13.00
  10  -6   7   71.79    7.90
  10   5  -7    3.00    3.00
 -10  -5   7    5.60    2.90
   9   5  -7   14.10    4.50
  -9  -5   7   23.50    5.10
   8   5  -7  127.99    9.40
  -8  -5   7  145.99    9.90
   7   5  -7  131.39    9.20
  -7  -5   7  150.78    9.70
   6   5  -7   -0.10    1.90
  -6  -5   7    4.20    2.60
   5   5  -7   12.80    3.50
   5   5  -7   10.10    3.20
  -5  -5   7    5.20    2.80
   4   5  -7  849.52   14.10
   4   5  -7  849.52   22.10
   4   5  -7  866.01   21.20
   4   5  -7  825.52   14.10
  -4  -5   7  842.02   21.70
  -4  -5   7  837.82   14.10
   3   5  -7    7.40    2.60
   3   5  -7    5.70    1.40
   3   5  -7    4.60    2.30
  -3  -5   7    2.90    2.40
  -3  -5   7    6.80    1.50
   2   5  -7   62.19    4.60
   2   5  -7   58.19    5.50
   2   5  -7   50.99    3.50
  -2  -5   7   51.19    3.50
  -2  -5   7   63.09    5.40
   1   5  -7  250.57   10.10
   1   5  -7  225.48    7.80
  -1  -5   7  237.18    7.90
   0   5  -7  814.42   20.20
   0   5  -7  780.92   16.10
   0  -5   7  795.32   18.10
   0  -5   7  778.32   16.00
  -1   5  -7  598.64   17.00
   1  -5   7  599.14   15.60
   1  -5   7  585.84   12.00
  -2   5  -7    2.20    0.80
  -2   5  -7    0.40    1.90
   2  -5   7   -0.50    1.70
   2  -5   7   -0.40    0.70
  -3   5  -7  734.43   20.00
   3  -5   7  743.63   19.60
  -4   5  -7   36.10    4.90
   4  -5   7   36.60    5.10
  -5   5  -7  276.87   12.30
   5  -5   7  296.07   12.70
  -6   5  -7  120.29    8.50
   6  -5   7  126.39    8.70
  -7   5  -7  112.59   10.30
   7  -5   7  101.99    8.50
  -8   5  -7  285.67   14.10
   8  -5   7  287.87   13.80
   8  -5   7  276.27    6.60
  -9   5  -7  102.09    9.40
   9  -5   7  137.39   10.20
 -10   5  -7    5.30    3.60
  10  -5   7    3.00    2.90
 -11  -4   7   18.50    6.90
  10   4  -7  147.29   10.50
 -10  -4   7  148.29   10.30
   9   4  -7  342.97   15.70
  -9  -4   7  347.67   15.20
   8   4  -7  101.79    9.60
   7   4  -7   11.60    3.60
  -7  -4   7   10.60    3.60
   6   4  -7  137.09    8.40
  -6  -4   7  147.19    8.60
   5   4  -7  267.77   11.20
  -5  -4   7  242.28   10.70
   4   4  -7  415.16   13.80
   4   4  -7  419.86   13.40
  -4  -4   7  406.46    7.20
  -4  -4   7  408.66   13.50
   3   4  -7   27.60    4.10
   3   4  -7   40.10    4.20
   3   4  -7   30.60    2.30
  -3  -4   7   21.90    3.70
   2   4  -7 2217.88   38.50
   2   4  -7 2130.29   35.60
   2   4  -7 2172.88   40.90
  -2  -4   7 2187.58   40.80
  -2  -4   7 2105.69   35.60
  -2  -4   7 2157.88   38.60
   1   4  -7 1248.78   23.80
  -1  -4   7 1227.18   24.00
  -1  -4   7 1329.67   26.70
   0   4  -7 1573.74   27.30
   0   4  -7 1508.65   40.60
   0   4  -7 1517.05   28.80
   0  -4   7 1557.44   29.10
   0  -4   7 1518.15   27.10
  -1   4  -7  266.67   10.60
  -1   4  -7  274.67    7.40
   1  -4   7  264.87    9.60
   1  -4   7  262.57    7.30
  -2   4  -7  230.78    9.70
  -2   4  -7  198.88    6.50
   2  -4   7  210.28    6.00
  -3   4  -7 2466.55   38.30
  -3   4  -7 2542.05   46.50
   3  -4   7 2440.86   38.50
   3  -4   7 2545.35   46.40
  -4   4  -7  331.77    7.40
  -4   4  -7  353.46   13.10
   4  -4   7  342.27    7.60
   4  -4   7  344.67    7.70
   4  -4   7  351.26   13.00
  -5   4  -7   33.50    5.10
   5  -4   7   36.70    2.50
   5  -4   7   31.00    4.70
  -6   4  -7 1115.29   27.90
   6  -4   7 1161.08   28.60
   6  -4   7 1101.69   19.90
   6  -4   7 1118.69   20.00
   7  -4   7  719.13   14.90
   7  -4   7  740.63   15.10
  -8   4  -7   17.90    4.60
   8  -4   7   19.90    4.50
  -9   4  -7    3.70    2.90
   9  -4   7   -5.20    2.10
   9  -4   7   -2.70    1.90
 -10   4  -7  162.58   11.40
  10  -4   7  187.18   11.80
  11   3  -7   32.10    6.00
 -11  -3   7   39.20    6.20
  10   3  -7  119.79   10.00
 -10  -3   7  132.59    9.60
   9   3  -7   20.40    4.60
  -9  -3   7   23.10    4.80
   8   3  -7  113.29    8.80
  -8  -3   7  112.89    8.20
   7   3  -7  306.57   13.10
  -7  -3   7  306.77   12.70
   6   3  -7    3.80    2.50
  -6  -3   7    6.70    2.80
   5   3  -7    9.90    3.10
  -5  -3   7    9.20    2.90
   4   3  -7  335.47   12.00
   4   3  -7  341.47   11.90
  -4  -3   7  335.47    6.40
  -4  -3   7  331.67   11.50
   3   3  -7   80.49    5.60
   3   3  -7   78.19    6.30
   3   3  -7   75.49    3.40
  -3  -3   7   81.09    5.60
   2   3  -7 1181.58   24.80
   2   3  -7 1173.78   23.80
   2   3  -7 1165.48   21.40
  -2  -3   7 1165.58   24.40
  -2  -3   7 1159.28   21.50
  -2  -3   7 1134.39   23.80
   1   3  -7  937.01   19.10
   1   3  -7  979.80   21.50
  -1  -3   7  931.11   19.60
  -1  -3   7  944.41   19.60
   0   3  -7  203.68    7.10
   0   3  -7  202.38    8.40
   0   3  -7  186.18    7.30
   0  -3   7  196.08    7.70
   0  -3   7  202.88    7.20
  -1   3  -7   80.19    5.60
  -1   3  -7   71.89    4.10
   1  -3   7   70.99    4.00
   1  -3   7   68.99    5.10
  -2   3  -7  313.37    8.30
   2  -3   7  316.37    8.50
  -3   3  -7  164.08    5.60
  -3   3  -7  162.08    8.20
   3  -3   7  169.58    8.40
   3  -3   7  163.78    5.80
  -4   3  -7   64.39    5.80
  -4   3  -7   70.19    3.80
   4  -3   7   72.89    6.00
   4  -3   7   64.79    3.70
  -5   3  -7  736.73   20.50
  -5   3  -7  725.13   15.10
   5  -3   7  743.13   21.10
   5  -3   7  680.93   15.00
   5  -3   7  733.03   15.50
  -6   3  -7  220.18   11.10
   6  -3   7  218.88    7.60
   6  -3   7  213.98   11.10
  -7   3  -7  158.28   10.00
   7  -3   7  159.88    6.80
   7  -3   7  155.98    6.80
  -8   3  -7   10.70    3.60
   8  -3   7   11.60    2.40
   8  -3   7    9.40    3.40
  -9   3  -7   99.89    8.60
   9  -3   7   97.99    8.60
   9  -3   7   91.19    6.20
 -10   3  -7  138.79   10.50
  10  -3   7  153.18   11.40
  10  -3   7  133.69    7.80
  11   2  -7  131.39   10.80
 -11  -2   7  140.09    9.80
  10   2  -7  240.08   13.20
 -10  -2   7  260.57   12.90
   9   2  -7   52.99    6.30
   8   2  -7  183.58   10.70
  -8  -2   7  194.18   10.20
   7   2  -7  705.23   20.90
  -7  -2   7  724.23   20.00
   6   2  -7  524.45   16.70
  -6  -2   7  511.75   15.60
   5   2  -7    4.30    2.50
  -5  -2   7    4.50    2.40
   4   2  -7  346.97   11.50
   4   2  -7  334.77   12.10
   4   2  -7  333.37    7.30
  -4  -2   7  333.67    7.30
  -4  -2   7  326.37    7.10
  -4  -2   7  341.87   11.10
   3   2  -7 1339.67   27.50
   3   2  -7 1344.47   23.30
   3   2  -7 1357.86   27.20
  -3  -2   7 1318.37   26.70
  -3  -2   7 1372.46   23.50
   2   2  -7  463.45   13.00
   2   2  -7  456.95   11.00
   2   2  -7  459.35   12.90
  -2  -2   7  455.35   11.20
   1   2  -7  241.98    8.90
   1   2  -7  236.98    7.90
   1   2  -7  236.48    8.50
  -1  -2   7  234.38    8.30
   0   2  -7  827.02   18.80
   0   2  -7  831.12   18.80
   0  -2   7  854.31   18.80
   0  -2   7  805.02   17.60
  -1   2  -7  548.15   14.60
  -1   2  -7  526.75   12.80
   1  -2   7  527.95   14.60
  -2   2  -7  318.97    9.00
  -2   2  -7  305.17   10.70
   2  -2   7  276.07   15.70
  -3   2  -7    3.00    1.60
  -3   2  -7    2.30    1.90
   3  -2   7    3.80    2.00
   3  -2   7    3.00    2.10
  -4   2  -7    7.80    2.80
   4  -2   7    2.00    2.00
   4  -2   7    1.30    1.70
  -5   2  -7 1589.04   31.40
  -5   2  -7 1595.34   34.00
   5  -2   7 1613.14   35.20
   5  -2   7 1668.53   30.30
   5  -2   7 1541.05   29.30
  -6   2  -7  479.65   16.30
  -6   2  -7  474.45   12.90
   6  -2   7  476.65   13.40
   6  -2   7  459.35   16.80
  -7   2  -7   51.19    6.20
   7  -2   7   59.79    5.30
   7  -2   7   75.19    8.70
  -8   2  -7  143.59    9.70
   8  -2   7  146.29    7.70
   8  -2   7  156.78   10.40
  -9   2  -7  375.36   16.40
   9  -2   7  385.56   16.70
   9  -2   7  384.16   13.50
 -10   2  -7   67.89    8.00
  10  -2   7   72.09    7.60
  12   1  -7  177.08   14.90
 -12  -1   7  167.78   11.30
  11   1  -7   28.80    6.00
 -11  -1   7   22.70    5.20
  10   1  -7    3.60    3.30
 -10  -1   7    5.40    2.80
   9   1  -7   63.49    7.90
  -9  -1   7   73.09    6.80
   8   1  -7  297.87   13.60
  -8  -1   7  307.17   12.50
   7   1  -7   11.70    3.70
   6   1  -7   77.29    6.60
  -6  -1   7   73.49    5.70
   5   1  -7  461.85   14.90
  -5  -1   7  484.05   13.70
  -5  -1   7  472.75    9.40
  -5  -1   7  467.75    9.20
   4   1  -7  800.32   18.60
   4   1  -7  809.22   20.10
   4   1  -7  811.52   15.30
  -4  -1   7  774.62   18.20
  -4  -1   7  817.72   15.40
  -4  -1   7  799.52   15.10
   3   1  -7  193.98    7.60
   3   1  -7  180.08    7.30
   3   1  -7  182.68    8.30
   3   1  -7  176.08    6.10
  -3  -1   7  177.98    7.20
  -3  -1   7  176.98    6.20
   2   1  -7    2.10    1.70
   2   1  -7    1.00    1.70
   2   1  -7    6.20    1.60
   2   1  -7    1.30    1.70
  -2  -1   7    2.40    1.50
   1   1  -7  797.22   17.60
   1   1  -7  804.72   17.70
   1   1  -7  789.02   17.30
   1   1  -7  807.42   18.40
  -1  -1   7  794.92   17.50
  -1  -1   7  808.52   17.90
   0   1  -7   13.50    2.50
   0   1  -7   10.80    2.50
   0   1  -7   11.40    2.30
   0  -1   7   13.20    2.30
   0  -1   7   17.60    3.00
   0  -1   7   10.50    2.30
  -1   1  -7  477.25   13.10
  -1   1  -7  465.25   12.50
   1  -1   7  472.65   12.50
   1  -1   7  497.95   14.20
  -2   1  -7  185.58    7.40
  -2   1  -7  185.18    7.90
   2  -1   7  176.58    7.10
   2  -1   7  179.48    8.50
  -3   1  -7  202.78    7.80
   3  -1   7  203.58    9.50
   3  -1   7  201.38    7.90
  -4   1  -7   17.20    2.80
  -4   1  -7   18.20    3.60
   4  -1   7   23.50    4.30
  -5   1  -7  281.07   11.70
  -5   1  -7  276.67    9.80
   5  -1   7  287.67   12.60
  -6   1  -7   -1.00    1.70
  -6   1  -7   -0.40    2.40
   6  -1   7    0.40    2.00
   6  -1   7   -1.50    2.20
  -7   1  -7  347.67   11.90
  -7   1  -7  335.37   14.00
   7  -1   7  326.37   14.60
   7  -1   7  348.57   12.50
  -8   1  -7  111.39    8.90
   8  -1   7  124.79    9.40
   8  -1   7  110.19    7.50
  -9   1  -7    8.20    3.80
   9  -1   7    7.70    3.30
   9  -1   7    4.70    3.00
  10  -1   7    4.40    4.00
 -12   0   7  119.09    9.00
  11   0  -7   44.90    7.00
 -11   0   7   54.49    6.50
  10   0  -7   80.69    8.00
   9   0  -7  224.68   12.30
  -9   0   7  235.58   11.10
   8   0  -7  365.06   14.80
  -8   0   7  348.27   13.00
   7   0  -7   71.49    6.50
  -7   0   7   81.89    3.10
  -7   0   7   68.89    5.50
  -7   0   7   67.19    2.90
   6   0  -7  398.86   14.30
  -6   0   7  392.86    8.80
  -6   0   7  376.36   11.40
  -6   0   7  372.96   14.10
   5   0  -7  892.81   22.30
  -5   0   7  890.21   19.70
  -5   0   7  881.31   16.90
  -5   0   7  857.41   16.60
   4   0  -7  676.53   18.20
   4   0  -7  653.63   15.40
   4   0  -7  687.53   16.00
   4   0  -7  680.83   14.50
  -4   0   7  675.13   15.70
  -4   0   7  672.13   14.40
  -4   0   7  655.13   14.10
   3   0  -7   97.89    4.90
   3   0  -7   90.39    4.90
  -3   0   7  102.89    5.10
   2   0  -7  562.34   14.00
   2   0  -7  579.64   15.70
   2   0  -7  586.14   13.80
   2   0  -7  599.84   15.70
  -2   0   7  571.54   14.20
   1   0  -7  797.82   17.30
   1   0  -7  784.72   17.10
   1   0  -7  805.02   18.90
  -1   0   7  805.22   18.40
  -1   0   7  788.72   17.00
   0   0  -7 1287.07   24.20
   0   0  -7 1309.37   26.20
   0   0   7 1282.77   26.50
   0   0   7 1272.77   24.20
  -1   0  -7   10.10    2.50
  -1   0  -7   13.30    2.70
   1   0   7   13.00    2.20
  -2   0  -7 1161.58   24.20
  -2   0  -7 1162.68   24.10
   2   0   7 1181.28   26.50
  -3   0  -7 1406.96   28.00
  -3   0  -7 1406.26   28.60
   3   0   7 1407.56   30.90
  -4   0  -7   97.29    6.40
   4   0   7   93.69    7.20
  -5   0  -7    3.40    2.20
  -5   0  -7   10.50    3.40
   5   0   7    3.70    2.80
  -6   0  -7  171.18    9.60
  -6   0  -7  165.08    8.40
   6   0   7  177.28   10.70
   6   0   7  175.78    9.00
  -7   0  -7  288.47   12.90
  -7   0  -7  285.67   11.60
   7   0   7  288.97   12.20
   7   0   7  271.27   13.50
  -8   0  -7  214.28   10.30
  -8   0  -7  233.78   12.20
   8   0   7  235.88   11.30
   8   0   7  222.78   12.60
  -9   0  -7    2.80    2.80
   9   0   7    0.60    3.10
  12  -1  -7    4.80    4.00
 -12   1   7   10.50    3.60
  11  -1  -7   39.20    6.10
 -11   1   7   45.10    6.20
  10  -1  -7  173.58   11.50
 -10   1   7  197.58   10.50
   9  -1  -7   38.70    6.20
  -9   1   7   34.60    4.90
  -9   1   7   33.90    2.80
  -9   1   7   34.30    2.90
   8  -1  -7  314.57   13.70
  -8   1   7  319.77   11.80
  -8   1   7  309.57    8.20
  -8   1   7  301.37    8.10
   7  -1  -7  176.88   10.00
  -7   1   7  176.28    6.20
  -7   1   7  167.78    8.00
  -7   1   7  174.28    6.10
   6  -1  -7  106.79    7.90
  -6   1   7  103.59    4.80
  -6   1   7  104.69    5.90
  -6   1   7  104.69    5.00
   5  -1  -7  334.97   10.00
   5  -1  -7  324.87   12.60
  -5   1   7  346.97   10.60
  -5   1   7  292.47   10.50
  -5   1   7  328.47    9.90
   4  -1  -7  198.88    9.60
   4  -1  -7  189.68    6.80
   4  -1  -7  192.08    7.20
  -4   1   7  203.38    7.30
  -4   1   7  207.28    8.40
  -4   1   7  192.98    8.70
   3  -1  -7  799.02   16.50
   3  -1  -7  784.32   17.80
   3  -1  -7  777.12   16.10
   3  -1  -7  840.72   20.60
  -3   1   7  804.72   18.00
  -3   1   7  778.42   17.50
   2  -1  -7 1254.57   23.00
   2  -1  -7 1266.97   30.70
   2  -1  -7 1247.08   22.80
  -2   1   7 1282.37   25.70
   1  -1  -7   -2.00    1.00
   1  -1  -7    0.60    1.20
   1  -1  -7   -0.60    2.00
  -1   1   7   -0.80    1.60
   0  -1  -7   80.89    4.30
   0  -1  -7   76.79    4.40
   0  -1  -7   80.29    5.70
   0   1   7   84.69    5.20
  -1  -1  -7  735.63   21.20
   1   1   7  809.82   20.30
   1   1   7  764.82   16.60
  -2  -1  -7  278.57    9.60
  -2  -1  -7  277.37   10.70
   2   1   7  300.87   11.80
  -3  -1  -7  335.37   11.70
  -3  -1  -7  335.27   11.20
   3   1   7  336.47   13.10
  -4  -1  -7   19.00    3.70
  -4  -1  -7   15.90    3.40
   4   1   7   16.80    3.80
  -5  -1  -7  691.63   19.10
  -5  -1  -7  694.23   19.00
   5   1   7  694.73   21.30
  -6  -1  -7   49.40    5.70
  -6  -1  -7   67.69    6.00
   6   1   7   64.99    7.00
   6   1   7   51.29    5.90
  -7  -1  -7   68.49    6.20
  -7  -1  -7   85.29    8.20
   7   1   7   74.09    7.40
   7   1   7   64.39    6.90
  -8  -1  -7   20.50    4.50
   8   1   7   21.60    5.10
  -9  -1  -7   13.70    4.60
   9   1   7    4.40    3.70
   9   1   7    2.00    3.20
  12  -2  -7   33.50    7.10
 -12   2   7   28.10    5.10
  11  -2  -7  136.59   10.40
 -11   2   7  137.49    9.00
  10  -2  -7  207.28   12.30
 -10   2   7  193.68   10.00
   9  -2  -7    0.10    2.70
  -9   2   7    1.80    2.00
  -9   2   7    1.90    2.10
  -9   2   7    1.60    2.00
   8  -2  -7   48.50    6.50
  -8   2   7   55.69    4.20
  -8   2   7   61.79    5.20
  -8   2   7   53.69    4.10
   7  -2  -7  459.75   16.40
  -7   2   7  433.16   12.70
  -7   2   7  416.26   11.60
  -7   2   7  409.66   11.40
   6  -2  -7  199.28    9.00
   6  -2  -7  217.28   10.70
  -6   2   7  205.78    7.90
  -6   2   7  214.78    7.80
  -6   2   7  204.08    7.70
   5  -2  -7  158.08    8.90
   5  -2  -7  164.68    6.40
  -5   2   7  178.18    7.40
  -5   2   7  168.98    7.30
   4  -2  -7  213.08   10.10
   4  -2  -7  209.68    6.70
   4  -2  -7  213.28    6.90
  -4   2   7  212.58    8.40
  -4   2   7  217.78    6.80
   3  -2  -7 2517.55   40.70
   3  -2  -7 2608.94   41.00
   3  -2  -7 2595.14   47.70
  -3   2   7 2566.44   45.20
   2  -2  -7  314.97    7.80
   2  -2  -7  309.27    7.90
   2  -2  -7  322.67   11.90
  -2   2   7  318.47   11.20
   1  -2  -7   15.50    3.20
   1  -2  -7   15.70    2.20
   1  -2  -7   13.60    2.00
  -1   2   7   13.30    3.00
   0  -2  -7  283.07    7.90
   0  -2  -7  284.97    8.10
   0  -2  -7  285.77   10.90
   0   2   7  295.47    8.00
   0   2   7  295.97   11.40
  -1  -2  -7  375.66   10.20
  -1  -2  -7  376.86   12.80
   1   2   7  368.66   11.60
   1   2   7  377.16   13.40
  -2  -2  -7  665.93   15.70
  -2  -2  -7  667.33   18.20
   2   2   7  689.43   19.70
   2   2   7  635.74   15.30
  -3  -2  -7    5.90    2.40
  -3  -2  -7   11.60    2.90
   3   2   7    9.20    3.20
  -4  -2  -7  120.19    7.00
  -4  -2  -7  100.29    7.20
   4   2   7  104.09    8.10
  -5  -2  -7  810.02   22.00
  -5  -2  -7  807.92   21.20
   5   2   7  870.71   35.80
  -6  -2  -7   32.50    4.90
  -6  -2  -7   35.60    5.20
   6   2   7   29.00    5.10
   6   2   7   42.50    6.50
  -7  -2  -7    0.70    3.00
   7   2   7    3.90    3.20
   7   2   7   -4.40    2.50
  -8  -2  -7   96.59    8.20
  -8  -2  -7  131.59    9.40
   8   2   7  102.29    9.00
   8   2   7  114.29    9.80
  11  -3  -7    4.70    3.70
 -11   3   7    2.70    3.20
 -11   3   7    6.20    2.70
  10  -3  -7   -3.40    2.70
 -10   3   7    0.60    2.30
 -10   3   7   -3.70    1.70
   9  -3  -7   61.79    7.30
  -9   3   7   61.69    4.80
  -9   3   7   65.29    5.30
   8  -3  -7  202.08   15.70
  -8   3   7  197.18    8.40
   7  -3  -7  108.89    8.60
  -7   3   7  110.99    5.80
  -7   3   7  110.29    6.20
   6  -3  -7    4.60    1.90
   6  -3  -7    9.80    3.40
  -6   3   7    4.50    2.10
   5  -3  -7 1026.00   19.50
   5  -3  -7 1028.90   19.40
   5  -3  -7 1055.99   26.30
  -5   3   7 1074.29   23.90
  -5   3   7 1045.50   19.40
   4  -3  -7    3.90    1.30
   4  -3  -7    5.60    2.70
   3  -3  -7  492.15    9.70
   3  -3  -7  521.55   16.40
   3  -3  -7  496.05    9.60
  -3   3   7  511.75   15.00
   2  -3  -7   68.69    2.70
   2  -3  -7   69.49    6.10
   2  -3  -7   71.19    2.90
  -2   3   7   57.79    5.40
   1  -3  -7   70.99    3.10
   1  -3  -7   70.89    3.00
   1  -3  -7   70.89    6.00
  -1   3   7   61.39    5.80
   0  -3  -7  478.45   10.40
   0  -3  -7  463.75   15.20
   0  -3  -7  485.25   10.30
   0   3   7  483.15   15.80
   0   3   7  467.55   10.20
  -1  -3  -7   30.00    3.10
  -1  -3  -7   29.00    4.50
   1   3   7   24.40    2.70
   1   3   7   29.80    4.60
  -2  -3  -7    0.00    2.10
  -2  -3  -7   -1.10    1.50
   2   3   7   -0.60    2.00
  -3  -3  -7  220.98    8.60
  -3  -3  -7  221.08   10.50
   3   3   7  226.28   11.50
  -4  -3  -7  297.57   12.60
  -4  -3  -7  305.37   10.90
   4   3   7  265.97   15.00
  -5  -3  -7    5.00    2.50
  -5  -3  -7    0.40    2.20
   5   3   7    5.80    3.30
  -6  -3  -7    0.30    2.50
  -6  -3  -7   -3.90    2.10
   6   3   7   -0.60    2.80
   6   3   7   -0.80    2.60
  -7  -3  -7  178.78   10.80
  -7  -3  -7  205.68   12.50
   7   3   7  195.98   12.40
   7   3   7  191.88   11.60
  -8  -3  -7   41.40    6.40
  -8  -3  -7   42.20    6.20
   8   3   7   36.10    6.60
  11  -4  -7   88.89    8.80
 -11   4   7   78.19    6.40
 -11   4   7   96.39    7.30
  10  -4  -7   71.09    7.70
 -10   4   7   66.09    5.90
 -10   4   7   75.79    6.10
   9  -4  -7  129.69    9.50
  -9   4   7  118.39    6.70
  -9   4   7   99.89    6.80
   8  -4  -7  253.07   13.10
  -8   4   7  250.87    9.00
  -8   4   7  248.18   10.30
   7  -4  -7   10.00    4.00
   7  -4  -7    7.00    2.30
  -7   4   7    7.90    2.70
  -7   4   7    7.10    2.70
   6  -4  -7   70.19    7.00
   6  -4  -7   65.39    3.70
   6  -4  -7   61.29    3.90
  -6   4   7   63.79    3.60
  -6   4   7   71.39    5.80
   5  -4  -7  677.53   20.40
   5  -4  -7  676.53   12.50
   5  -4  -7  655.23   12.80
  -5   4   7  669.03   18.30
   4  -4  -7  371.86   14.30
  -4   4   7  385.96   13.50
   3  -4  -7    3.60    3.00
  -3   4   7   12.60    3.10
   2  -4  -7   18.80    4.20
  -2   4   7   27.60    4.60
   1  -4  -7 1034.40   25.60
  -1   4   7 1009.50   25.20
   0  -4  -7  217.68    5.30
   0  -4  -7  211.88    5.30
   0  -4  -7  199.38   10.10
   0   4   7  211.78    5.30
   0   4   7  212.68   10.50
  -1  -4  -7   68.99    3.70
  -1  -4  -7   70.59    6.40
   1   4   7   87.49    7.30
   1   4   7   65.79    3.70
  -2  -4  -7  530.05   17.30
   2   4   7  513.95   17.90
   2   4   7  516.55   12.60
  -3  -4  -7  147.39    6.80
  -3  -4  -7  153.78    9.40
   3   4   7  156.98   15.60
  -4  -4  -7  443.86   13.40
   4   4   7  419.06   17.00
  -5  -4  -7    1.00    2.30
  -5  -4  -7    2.80    2.50
   5   4   7    1.50    3.00
  -6  -4  -7  166.68   10.60
  -6  -4  -7  175.48    9.50
   6   4   7  170.28   11.50
   6   4   7  175.58   11.70
  -7  -4  -7  188.78   11.20
  -7  -4  -7  190.18   10.80
   7   4   7  186.48   11.80
   7   4   7  198.18   12.50
  11  -5  -7  106.09    9.50
 -11   5   7   97.39    7.60
 -11   5   7   85.09    6.70
  10  -5  -7   95.59    9.40
 -10   5   7  107.79    6.60
 -10   5   7  100.49    7.50
   9  -5  -7   80.99    8.60
  -9   5   7   80.69    6.70
   8  -5  -7   36.00    5.90
   8  -5  -7   42.50    5.80
  -8   5   7   52.39    3.70
  -8   5   7   51.39    5.80
   7  -5  -7  430.66   10.70
   7  -5  -7  446.76   17.70
  -7   5   7  446.36   15.10
  -7   5   7  436.66   10.30
   6  -5  -7  609.94   11.30
   6  -5  -7  631.04   20.90
   6  -5  -7  606.64   11.30
  -6   5   7  667.93   18.90
   5  -5  -7    0.50    2.50
  -5   5   7    1.60    2.50
   4  -5  -7   -0.50    2.40
  -4   5   7    2.50    2.20
   3  -5  -7  991.50   26.00
  -3   5   7 1012.50   25.60
   2  -5  -7    3.10    2.70
  -2   5   7    2.60    2.50
   1  -5  -7  367.06   14.50
  -1   5   7  379.16   14.50
   0  -5  -7    5.50    3.20
   0   5   7   -0.50    2.00
  -1  -5  -7  509.75   17.40
   1   5   7  508.35   18.10
   1   5   7  496.05   10.20
  -2  -5  -7  240.68    7.70
   2   5   7  248.38   12.60
  -3  -5  -7   23.60    4.80
  -3  -5  -7   21.50    3.10
   3   5   7   22.10    4.80
  -4  -5  -7   22.30    3.50
  -4  -5  -7   21.60    4.50
   4   5   7   23.80    5.20
  -5  -5  -7   18.50    4.00
  -5  -5  -7   23.30    4.00
   5   5   7   13.90    4.50
  -6  -5  -7  187.58    9.80
  -6  -5  -7  187.88   11.50
   6   5   7  177.48   12.10
   6   5   7  191.78   12.10
  10  -6  -7   46.80    7.00
 -10   6   7   56.99    6.80
 -10   6   7   52.89    4.60
   9  -6  -7   14.60    4.50
  -9   6   7   28.10    4.90
  -9   6   7   30.50    3.30
   8  -6  -7   73.09    7.80
  -8   6   7   78.59    3.90
  -8   6   7   85.59    7.30
   7  -6  -7  364.36   15.90
  -7   6   7  385.66   14.90
   6  -6  -7  338.97   15.20
  -6   6   7  316.07   13.30
   5  -6  -7   16.70    4.70
  -5   6   7   21.70    4.30
  -4   6   7  198.28   10.60
   3  -6  -7  345.07   20.30
  -3   6   7  346.97   14.50
   2  -6  -7  301.47   18.70
  -2   6   7  312.77   13.60
  -1   6   7   23.20    5.40
   0  -6  -7   24.30    4.70
   0   6   7   25.30    5.10
  -1  -6  -7  542.95   18.90
   1   6   7  530.85   19.30
  -2  -6  -7   91.99    7.80
  -2  -6  -7   88.69    4.20
   2   6   7   85.89    8.10
  -3  -6  -7   12.50    2.60
  -3  -6  -7   22.60    5.00
   3   6   7   14.00    4.80
  -4  -6  -7  112.69    8.90
  -4  -6  -7  115.79    6.50
   4   6   7   73.19    8.50
  -5  -6  -7   94.09    8.40
  -5  -6  -7   87.99    6.70
   5   6   7   87.79    9.30
   9  -7  -7  173.38   12.00
  -9   7   7  182.28   10.80
   8  -7  -7  138.59   10.30
  -8   7   7  127.99    9.30
   7  -7  -7   79.99    8.00
  -7   7   7   81.89    7.90
   6  -7  -7    0.30    2.80
  -6   7   7    3.10    2.80
   5  -7  -7   31.00    6.00
  -5   7   7   22.00    4.60
   4  -7  -7  793.62   24.20
  -4   7   7  798.02   24.00
   3  -7  -7   34.40    5.80
  -3   7   7   19.30    4.60
   2  -7  -7   10.60    3.70
  -2   7   7   19.40    4.60
   1  -7  -7  195.78   11.30
  -1   7   7  203.78   11.70
   0  -7  -7  256.67   13.20
   0   7   7  246.18   13.10
  -1  -7  -7    6.10    3.10
   1   7   7    5.00    3.70
  -2  -7  -7   -1.00    2.60
   2   7   7    0.40    3.10
  -3  -7  -7  121.49    9.50
   3   7   7  120.19    9.80
  -4  -7  -7   76.59   13.20
   8  -8  -7  151.88   11.40
  -8   8   7  139.29   10.10
   7  -8  -7    7.80    4.40
  -7   8   7   16.60    4.80
   6  -8  -7    2.10    3.40
  -6   8   7    7.10    3.50
   5  -8  -7  172.68   11.20
  -5   8   7  166.98   11.20
   4  -8  -7   80.89    8.40
  -4   8   7   64.89    7.40
   3  -8  -7  102.19    9.00
  -3   8   7   78.79    7.90
   2  -8  -7   44.30    6.80
  -2   8   7   56.39    7.80
   1  -8  -7  152.08   10.50
  -1   8   7  127.09   10.10
   0  -8  -7  281.67   14.20
   0   8   7  284.87   14.80
  -1  -8  -7   18.10    5.00
   1   8   7   14.80    4.30
  -2  -8  -7  140.59   14.70
   2   8   7  118.69   11.30
   6  -9  -7  129.09   10.10
  -6   9   7   95.69    8.70
   5  -9  -7   52.79    7.30
  -5   9   7   48.90    7.30
   4  -9  -7    0.50    2.60
  -4   9   7    1.30    3.30
   3  -9  -7   78.89    8.20
  -3   9   7   79.09    8.40
   2  -9  -7  162.58   10.90
  -2   9   7  147.89   10.80
   1  -9  -7  147.39   11.10
  -1   9   7  136.09   11.00
   0   9   7    6.30    7.40
   3  12  -8   -0.30    2.70
   3  12  -8   -3.00    2.80
   3  12  -8   -4.10    2.40
   2  12  -8   67.19    6.70
   2  12  -8   80.09    8.30
   2  12  -8   79.49    6.80
  -2 -12   8   81.19    6.60
   1  12  -8  232.78   10.20
   1  12  -8  219.78   13.00
   1  12  -8  224.78   13.10
  -1 -12   8  254.27   15.50
   0  12  -8  137.79    7.50
   0  12  -8  135.69   10.00
   0 -12   8  135.99    9.10
  -1  12  -8   -2.30    2.60
   1 -12   8    3.50    2.80
  -2  12  -8  189.08   11.90
   2 -12   8  201.18   11.70
  -3  12  -8  436.66   18.50
   3 -12   8  439.66   17.50
  -4  12  -8  136.89   10.80
   4 -12   8  141.39   10.50
  -5  12  -8    9.70    4.20
   5 -12   8   10.00    3.70
   4  11  -8   30.50    5.90
   4  11  -8   23.50    3.70
   4  11  -8   24.40    4.80
  -4 -11   8   21.20    5.00
   3  11  -8   22.70    5.10
   3  11  -8   16.60    3.60
   3  11  -8   20.90    4.20
  -3 -11   8   21.90    3.90
   2  11  -8   46.20    6.80
   2  11  -8   51.59    5.50
   2  11  -8   38.10    5.20
  -2 -11   8   52.19    5.50
   1  11  -8  110.29    6.90
   1  11  -8   99.99    9.10
  -1 -11   8   97.39    7.50
   0  11  -8    3.30    2.10
   0  11  -8    7.90    3.80
   0 -11   8    3.00    2.90
  -1  11  -8   37.60    6.10
   1 -11   8   42.30    6.70
  -2  11  -8   86.19    8.30
   2 -11   8   87.59    7.60
  -3  11  -8  148.59   10.40
   3 -11   8  149.29   10.20
  -4  11  -8    7.60    3.80
   4 -11   8    7.60    3.50
  -5  11  -8   48.80    7.10
   5 -11   8   47.90    6.80
  -6  11  -8  126.39   10.40
   6 -11   8  134.69   10.10
   6  10  -8  229.48   12.90
   6  10  -8  220.38   15.50
  -6 -10   8  204.88   14.50
   5  10  -8   18.70    5.60
   5  10  -8   14.90    6.40
  -5 -10   8   30.80    6.10
   4  10  -8  163.68   10.10
   4  10  -8  155.38    7.20
   4  10  -8  161.48   10.90
  -4 -10   8  161.98   10.80
   3  10  -8  547.25   17.30
   3  10  -8  539.95   15.40
   3  10  -8  544.75   20.00
  -3 -10   8  545.45   15.20
   2  10  -8  226.78   10.00
   2  10  -8  209.58    9.60
   2  10  -8  216.98   12.00
  -2 -10   8  231.08    9.80
   1  10  -8    7.60    2.60
   1  10  -8    4.10    3.10
  -1 -10   8    7.80    3.00
   0  10  -8  272.27    9.30
   0  10  -8  310.57   14.20
   0 -10   8  294.97   11.90
  -1  10  -8  720.33   15.10
  -1  10  -8  715.23   15.00
  -1  10  -8  768.82   23.30
   1 -10   8  765.32   21.40
  -2  10  -8   72.59    7.40
   2 -10   8   63.29    6.10
  -3  10  -8    4.50    3.90
   3 -10   8    8.50    3.90
  -4  10  -8  195.38   12.10
   4 -10   8  199.28   11.20
  -5  10  -8  488.55   19.00
   5 -10   8  499.45   19.00
  -6  10  -8  168.58   11.70
   6 -10   8  191.08   11.80
   7 -10   8   -1.10    2.70
   7   9  -8   52.49    7.30
   7   9  -8   48.50    7.60
  -7  -9   8   41.50    6.70
   6   9  -8   14.00    4.10
   6   9  -8    4.70    3.40
  -6  -9   8    6.00    3.10
   5   9  -8   52.09    7.10
   5   9  -8   47.10    3.40
  -5  -9   8   71.69    7.20
   4   9  -8  127.19    5.90
   4   9  -8  133.79    8.60
   4   9  -8  121.89    9.40
  -4  -9   8  126.39    9.10
   3   9  -8  122.29    7.80
   3   9  -8  102.19    8.40
   3   9  -8  114.69    6.30
  -3  -9   8  116.99    6.30
  -3  -9   8  119.19    8.60
   2   9  -8   35.20    4.50
   2   9  -8   47.10    6.30
  -2  -9   8   32.10    4.10
   1   9  -8  274.07    9.90
   1   9  -8  290.47   21.00
  -1  -9   8  300.27   11.00
   0   9  -8  593.04   14.30
   0   9  -8  561.64   19.50
   0   9  -8  567.44   13.60
   0  -9   8  554.34   16.70
  -1   9  -8   67.99    7.30
  -1   9  -8   67.99    3.50
  -1   9  -8   77.09    3.80
   1  -9   8   74.39    6.30
   2  -9   8    1.10    2.40
  -3   9  -8  231.48   12.50
   3  -9   8  227.48   11.50
  -4   9  -8   76.29    7.70
   4  -9   8   78.39    8.70
  -5   9  -8  364.66   15.90
   5  -9   8  368.96   15.60
  -6   9  -8    9.60    4.10
   6  -9   8   17.70    4.40
  -7   9  -8  155.88   10.90
   7  -9   8  148.59   10.50
  -8   9  -8  166.78   11.70
   8  -9   8  178.18   12.40
   8   8  -8  201.88   12.60
   8   8  -8  212.28   13.50
  -8  -8   8  227.98   13.70
   7   8  -8    7.50    3.50
   7   8  -8    2.40    3.20
  -7  -8   8    7.70    3.50
   6   8  -8   99.29    8.50
   6   8  -8   84.79    8.30
  -6  -8   8   97.19    8.40
   5   8  -8  666.33   20.30
   5   8  -8  628.14   21.30
   5   8  -8  591.94   11.80
  -5  -8   8  613.64   20.70
   4   8  -8  179.48   10.60
   4   8  -8  172.68    9.40
   4   8  -8  177.08    6.50
  -4  -8   8  176.38    6.40
  -4  -8   8  165.88   10.20
   3   8  -8    1.50    1.70
   3   8  -8    5.90    3.00
   3   8  -8    2.70    2.30
  -3  -8   8    3.70    1.80
  -3  -8   8    5.30    3.20
   2   8  -8   82.99    7.20
   2   8  -8   83.09    6.00
  -2  -8   8  100.59    5.70
   1   8  -8  561.44   18.60
   1   8  -8  577.44   14.90
  -1  -8   8  581.44   18.40
   0   8  -8 1228.78   23.50
   0   8  -8 1231.48   29.70
   0   8  -8 1266.87   30.40
   0  -8   8 1329.57   27.80
  -1   8  -8    1.00    1.10
  -1   8  -8   -0.80    2.20
  -1   8  -8    0.50    1.20
   1  -8   8    4.90    2.40
  -2   8  -8  435.66   16.10
   2  -8   8  423.86   14.90
  -3   8  -8 1138.39   29.10
   3  -8   8 1101.79   27.60
   4  -8   8  214.68   11.40
  -5   8  -8   34.10    5.70
   5  -8   8   33.10    5.60
  -6   8  -8  219.98   12.40
   6  -8   8  227.68   12.30
  -7   8  -8  450.45   18.30
   7  -8   8  437.76   18.30
  -8   8  -8  173.68   12.10
   8  -8   8  160.18   11.50
  -9   8  -8   -6.10    3.80
   9  -8   8    2.80    3.40
   9   7  -8   19.30    4.80
   8   7  -8   -2.40    2.70
  -8  -7   8    0.80    2.90
   7   7  -8   43.40    6.60
   7   7  -8   51.19    6.30
  -7  -7   8   70.29    7.60
   6   7  -8  106.69    8.70
   6   7  -8  102.99    9.40
  -6  -7   8  116.39    8.70
   5   7  -8  107.89    9.90
   5   7  -8   97.89    7.60
  -5  -7   8   98.19    8.20
   4   7  -8   -1.20    2.30
   4   7  -8    2.30    1.10
   4   7  -8   -1.10    1.10
   4   7  -8   -1.40    1.80
  -4  -7   8    0.00    1.20
  -4  -7   8    4.00    2.60
   3   7  -8    8.50    3.40
   3   7  -8    6.80    2.50
   3   7  -8    3.30    1.80
  -3  -7   8    5.70    2.90
   2   7  -8  126.19    8.30
   2   7  -8  142.29    7.30
  -2  -7   8  129.79    6.20
   1   7  -8  280.77   12.30
   1   7  -8  284.37    9.60
  -1  -7   8  292.47   10.00
  -1  -7   8  283.17   11.10
   0   7  -8    0.70    2.20
   0   7  -8    1.10    1.50
   0  -7   8    0.40    1.90
  -1   7  -8    3.30    1.10
  -1   7  -8    7.30    3.00
  -1   7  -8    5.60    1.90
   1  -7   8    3.80    2.30
  -2   7  -8  793.22   22.20
   2  -7   8  780.72   20.80
  -3   7  -8   13.80    3.70
   3  -7   8    9.10    3.40
  -4   7  -8   36.40    5.40
   4  -7   8   43.40    5.80
   5  -7   8  189.08   10.90
  -6   7  -8  423.76   17.00
   6  -7   8  397.76   16.20
  -7   7  -8  118.29    9.60
   7  -7   8  139.39   10.00
  -8   7  -8    2.70    3.90
   8  -7   8   10.70    3.90
  -9   7  -8  122.49   14.80
   9  -7   8  101.49   14.50
   9   6  -8   31.80    6.30
  -9  -6   8   20.50    4.70
   8   6  -8  103.19    8.70
  -8  -6   8  116.89    9.20
   7   6  -8  330.87   14.60
  -7  -6   8  317.27   14.60
   6   6  -8  455.95   16.40
   6   6  -8  408.26   19.20
  -6  -6   8  407.36   18.50
   5   6  -8  126.59    8.10
   5   6  -8  124.29    8.50
  -5  -6   8  109.19    8.00
   4   6  -8   18.20    4.30
   4   6  -8   13.60    2.00
   4   6  -8    9.00    2.90
   4   6  -8    8.60    1.50
  -4  -6   8   12.70    3.90
   3   6  -8 1372.46   28.50
   3   6  -8 1329.97   30.60
   3   6  -8 1282.47   23.60
  -3  -6   8 1315.97   23.80
  -3  -6   8 1309.27   30.10
   2   6  -8  455.35   12.00
   2   6  -8  475.15   15.90
   2   6  -8  481.35   13.70
  -2  -6   8  501.85   13.70
   1   6  -8   96.69    7.20
   1   6  -8   97.29    5.50
  -1  -6   8   84.79    5.10
  -1  -6   8   93.19    5.40
   0   6  -8  704.53   19.90
   0   6  -8  724.43   15.60
   0  -6   8  725.73   17.90
   0  -6   8  707.13   17.00
  -1   6  -8  256.27   11.30
  -1   6  -8  266.67    7.20
   1  -6   8  254.97    7.10
   1  -6   8  255.57   10.30
  -2   6  -8  474.75    8.80
  -2   6  -8  473.45    8.70
  -2   6  -8  509.95   16.70
   2  -6   8  473.65    9.00
   2  -6   8  485.95   15.20
  -3   6  -8   68.39    6.80
   3  -6   8   66.59    5.90
  -4   6  -8  282.87   12.70
   4  -6   8  296.77   12.60
  -5   6  -8  918.11   25.40
   5  -6   8  914.41   25.00
  -6   6  -8  642.94   20.90
   6  -6   8  608.94   20.40
  -7   6  -8    4.30    3.20
   7  -6   8    4.40    2.80
  -8   6  -8  141.69   10.50
   8  -6   8  166.38   11.10
  -9   6  -8  412.86   18.30
   9  -6   8  434.86   18.40
  10   5  -8   -4.90    2.80
 -10  -5   8    4.20    3.20
   9   5  -8   34.90    6.00
  -9  -5   8   49.20    6.80
   8   5  -8  161.48   10.60
  -8  -5   8  147.39    9.90
  -7  -5   8  112.19    8.40
   6   5  -8   60.49    6.30
   6   5  -8   69.99    6.80
  -6  -5   8   56.69    6.30
   5   5  -8  187.48    9.80
   5   5  -8  188.98   10.20
  -5  -5   8  213.48   10.40
   4   5  -8  356.66    7.60
   4   5  -8  365.36   13.80
   4   5  -8  384.26   13.20
  -4  -5   8  368.06   13.60
  -4  -5   8  359.06    7.60
   3   5  -8  176.58    5.90
   3   5  -8  178.68   10.10
   3   5  -8  176.98    9.20
  -3  -5   8  163.28    9.00
  -3  -5   8  179.78    6.00
   2   5  -8    6.00    2.50
   2   5  -8    2.50    2.10
   2   5  -8    5.60    1.80
  -2  -5   8    6.40    3.00
   1   5  -8  654.63   15.70
   1   5  -8  675.53   18.80
   1   5  -8  668.63   17.70
  -1  -5   8  654.83   15.70
  -1  -5   8  682.23   16.00
   0   5  -8  305.27   12.00
   0   5  -8  298.67    9.00
   0  -5   8  313.97   10.50
  -1   5  -8  314.47   12.10
  -1   5  -8  304.47    8.30
   1  -5   8  315.67   11.60
   1  -5   8  304.07    8.20
  -2   5  -8    8.60    2.00
  -2   5  -8    2.40    2.40
   2  -5   8    4.50    1.30
   2  -5   8   10.80    3.00
  -3   5  -8    6.70    1.00
  -3   5  -8    3.60    2.60
   3  -5   8    5.50    2.70
   3  -5   8    5.20    1.00
  -4   5  -8 1054.49   26.50
   4  -5   8 1048.60   26.50
  -5   5  -8  268.87   12.70
   5  -5   8  260.27   12.30
   6  -5   8    2.60    3.30
  -7   5  -8   13.50    4.10
   7  -5   8   18.00    4.30
  -8   5  -8  144.39   10.30
   8  -5   8  155.68   10.60
  -9   5  -8  105.09    9.30
   9  -5   8  103.79    8.90
  10   4  -8   22.30    5.10
 -10  -4   8   18.90    4.50
   9   4  -8  495.45   19.40
  -9  -4   8  536.45   19.30
   8   4  -8  206.68   12.10
  -8  -4   8  235.78   12.10
   7   4  -8   50.19    6.30
  -7  -4   8   62.59    6.50
   6   4  -8   72.69    6.50
  -6  -4   8   73.19    6.60
   5   4  -8  679.53   19.40
   5   4  -8  671.83   19.50
  -5  -4   8  637.94   18.80
   4   4  -8 1067.59   24.90
   4   4  -8 1079.49   17.70
   4   4  -8 1073.69   25.50
  -4  -4   8 1041.30   17.60
  -4  -4   8 1045.90   24.90
   3   4  -8   20.40    2.40
   3   4  -8   17.40    3.70
  -3  -4   8   27.00    2.50
  -3  -4   8   19.90    3.90
   2   4  -8  292.17   11.30
   2   4  -8  277.57   10.10
   2   4  -8  291.97   10.20
  -2  -4   8  284.47    8.70
   1   4  -8 1925.61   34.30
   1   4  -8 1863.51   33.60
   1   4  -8 1896.91   37.00
  -1  -4   8 1902.71   34.00
  -1  -4   8 1809.42   33.70
   0   4  -8  977.30   23.10
   0   4  -8  963.20   22.00
   0  -4   8  960.50   21.30
   0  -4   8  925.41   19.40
  -1   4  -8   19.70    2.50
  -1   4  -8   19.70    3.60
   1  -4   8   21.50    2.60
  -2   4  -8  462.95   10.60
  -2   4  -8  446.06   14.80
   2  -4   8  473.45   14.80
   2  -4   8  448.56   10.70
  -3   4  -8  524.05   11.20
  -3   4  -8  534.45   16.70
   3  -4   8  533.35   11.50
   3  -4   8  523.55   16.50
  -4   4  -8 1154.38   20.90
  -4   4  -8 1155.88   27.70
   4  -4   8 1147.19   28.00
   4  -4   8 1121.39   20.30
  -5   4  -8   87.29    7.30
  -5   4  -8   91.59    3.90
   5  -4   8   86.39    4.10
   5  -4   8   81.79    4.00
   5  -4   8   85.69    7.60
  -6   4  -8  563.34   19.20
   6  -4   8  548.75   12.00
   6  -4   8  506.05   11.70
  -7   4  -8  293.77   13.80
   7  -4   8  315.27    8.70
   7  -4   8  294.17    9.60
   7  -4   8  311.97   14.30
  -8   4  -8   97.59    8.80
   8  -4   8   90.29    8.30
  -9   4  -8    8.60    3.80
   9  -4   8    4.80    2.90
 -11  -3   8   64.39    7.90
  10   3  -8   97.69    8.80
 -10  -3   8  106.89    9.00
   9   3  -8  159.68   10.70
  -9  -3   8  157.68   10.10
   8   3  -8   13.30    3.90
  -8  -3   8   15.90    4.70
   7   3  -8   62.29    6.90
  -7  -3   8   60.69    6.30
   6   3  -8  271.57   12.10
  -6  -3   8  247.08   11.20
   5   3  -8  317.17   12.60
   5   3  -8  320.57   12.40
  -5  -3   8  296.07   11.60
   4   3  -8   22.10    3.70
   4   3  -8   25.70    4.20
   4   3  -8   24.40    2.00
  -4  -3   8   25.30    2.00
  -4  -3   8   18.90    3.70
   3   3  -8   64.59    3.70
   3   3  -8   71.79    5.60
  -3  -3   8   68.29    3.80
  -3  -3   8   76.99    5.80
   2   3  -8  730.93   17.90
   2   3  -8  720.73   18.40
   2   3  -8  707.23   15.70
  -2  -3   8  719.93   17.80
   1   3  -8  109.39    5.70
   1   3  -8  112.89    6.10
   1   3  -8  116.19    8.10
  -1  -3   8  106.49    5.70
   0   3  -8   94.09    5.30
   0   3  -8  103.99    6.70
   0  -3   8   95.49    5.30
   0  -3   8  103.49    6.00
  -1   3  -8  419.56   13.30
  -1   3  -8  401.76   14.90
   1  -3   8  395.46   10.90
  -2   3  -8  876.21   17.90
  -2   3  -8  898.21   21.80
   2  -3   8  847.82   21.50
  -3   3  -8   57.29    5.30
  -3   3  -8   61.09    4.00
   3  -3   8   70.99    6.40
   3  -3   8   56.39    5.50
  -4   3  -8   -0.90    1.30
   4  -3   8   -0.80    2.30
  -5   3  -8  156.98    9.20
   5  -3   8  138.29    6.10
   5  -3   8  158.78    9.80
  -6   3  -8  308.17   13.70
  -6   3  -8  308.87    9.20
   6  -3   8  314.27    9.70
   6  -3   8  276.07    9.20
  -7   3  -8  155.78   10.00
   7  -3   8  164.68    7.10
   7  -3   8  151.38   10.10
  -8   3  -8   18.10    4.60
   8  -3   8    4.10    3.00
   8  -3   8    6.90    2.50
  -9   3  -8   26.60    5.60
   9  -3   8   26.50    4.00
   9  -3   8   30.20    6.30
  11   2  -8  167.38   12.20
 -11  -2   8  169.48   11.10
  10   2  -8  223.68   13.20
 -10  -2   8  220.18   12.20
   9   2  -8   63.59    7.30
  -9  -2   8   87.89    7.40
   8   2  -8   22.40    6.00
  -8  -2   8   31.80    4.90
   7   2  -8  343.97   14.20
  -7  -2   8  355.96   13.50
   6   2  -8 1081.09   26.70
  -6  -2   8 1047.40   25.00
   5   2  -8  129.59    7.90
   5   2  -8  127.09    7.40
  -5  -2   8  128.69    3.60
  -5  -2   8  124.99    7.10
  -5  -2   8  129.49    3.60
   4   2  -8   83.69    3.80
   4   2  -8   82.09    5.70
   4   2  -8   84.09    6.40
  -4  -2   8   83.49    5.90
  -4  -2   8   81.79    3.80
   3   2  -8  953.20   22.30
   3   2  -8  976.50   23.20
   3   2  -8  947.81   18.80
  -3  -2   8  950.40   22.00
  -3  -2   8  966.50   19.00
   2   2  -8  873.71   18.60
   2   2  -8  898.81   20.60
   2   2  -8  877.21   20.60
  -2  -2   8  879.71   21.30
   1   2  -8  241.58    9.20
   1   2  -8  240.58    9.20
  -1  -2   8  227.38    8.60
   0   2  -8  356.06   11.70
   0   2  -8  343.57   10.80
   0  -2   8  336.37   11.30
  -1   2  -8  722.93   16.40
   1  -2   8  707.83   18.40
   1  -2   8  688.03   16.30
  -2   2  -8  835.02   18.40
  -2   2  -8  876.91   21.10
   2  -2   8  841.62   18.60
   2  -2   8  892.51   22.00
  -3   2  -8    2.20    2.30
  -3   2  -8    0.50    1.50
   3  -2   8   -0.30    1.60
   3  -2   8    4.10    2.30
  -4   2  -8  250.87    8.70
  -4   2  -8  259.37   11.10
   4  -2   8  251.37   11.70
  -5   2  -8  763.22   21.50
  -5   2  -8  763.52   17.60
   5  -2   8  769.62   22.60
  -6   2  -8  398.16   15.30
  -6   2  -8  376.76   11.80
   6  -2   8  417.96   12.80
   6  -2   8  414.16   16.70
  -7   2  -8   20.70    3.30
  -7   2  -8   23.00    4.80
   7  -2   8   12.10    2.90
   7  -2   8   17.10    4.60
  -8   2  -8   74.29    7.40
   8  -2   8   64.69    6.00
   8  -2   8   81.49    8.00
  -9   2  -8  480.65   19.10
   9  -2   8  484.95   20.10
   9  -2   8  473.95   15.40
  11   1  -8   29.60    6.40
 -11  -1   8   57.29    6.90
  10   1  -8    0.70    3.10
 -10  -1   8    7.20    3.60
   9   1  -8   55.49    6.90
  -9  -1   8   38.40    5.50
  -8  -1   8  190.38    9.90
   7   1  -8   50.39    6.10
  -7  -1   8   42.60    5.10
   6   1  -8  148.79    8.90
  -6  -1   8  144.79    4.00
  -6  -1   8  132.29    7.60
  -6  -1   8  149.29    4.00
   5   1  -8   93.09    7.00
   5   1  -8  101.49    6.50
  -5  -1   8   97.39    4.00
  -5  -1   8  102.29    4.30
  -5  -1   8  102.19    6.50
   4   1  -8  388.46    9.90
   4   1  -8  392.66   12.30
   4   1  -8  384.46   13.70
  -4  -1   8  385.66    9.70
  -4  -1   8  395.26   12.10
  -4  -1   8  380.16    9.90
   3   1  -8  601.54   14.10
   3   1  -8  610.54   15.60
   3   1  -8  583.54   16.60
   2   1  -8   10.40    2.30
   2   1  -8   10.10    2.60
   2   1  -8    8.80    4.50
  -2  -1   8   10.30    2.40
   1   1  -8   62.09    5.20
   1   1  -8   49.50    4.30
  -1  -1   8   37.70    3.80
   0   1  -8 1211.78   25.20
   0   1  -8 1185.28   24.80
   0  -1   8 1224.88   28.10
  -1   1  -8  126.89    6.60
  -1   1  -8  112.49    6.40
   1  -1   8  119.99    7.40
  -2   1  -8    0.80    1.80
   2  -1   8   -3.90    1.70
  -3   1  -8    4.40    1.90
  -3   1  -8    2.50    2.00
   3  -1   8    2.80    2.30
  -4   1  -8 1661.03   32.10
  -4   1  -8 1674.63   34.70
   4  -1   8 1684.13   36.70
  -5   1  -8  160.68    7.70
  -5   1  -8  146.19    9.00
   5  -1   8  152.38    9.70
  -6   1  -8   27.60    4.80
  -6   1  -8   34.60    4.20
   6  -1   8   29.80    4.30
   6  -1   8   38.50    5.90
  -7   1  -8   98.69    6.50
  -7   1  -8   93.49    8.00
   7  -1   8   92.29    8.40
   7  -1   8  100.49    7.10
  -8   1  -8   59.49    6.90
   8  -1   8   49.00    7.00
   8  -1   8   55.09    6.20
  -9   1  -8  101.79    9.00
   9  -1   8   87.99   10.20
   9  -1   8   89.19    7.60
  11   0  -8   56.39    7.80
 -11   0   8   48.20    6.50
  10   0  -8   11.10    4.40
 -10   0   8   21.20    4.50
   9   0  -8   60.99    7.10
  -9   0   8   72.29    6.60
   8   0  -8  511.05   27.50
  -8   0   8  570.74   17.10
   7   0  -8  180.48   10.40
  -7   0   8  172.58    8.70
  -7   0   8  176.98    5.20
   6   0  -8  388.66   14.80
  -6   0   8  402.36   12.70
  -6   0   8  393.26    9.60
  -6   0   8  391.46    9.50
   5   0  -8  210.28    8.70
   5   0  -8  199.18   10.10
  -5   0   8  209.68    8.40
  -5   0   8  219.48    7.20
  -5   0   8  201.68    6.90
   4   0  -8 1359.66   30.30
   4   0  -8 1398.96   27.40
   4   0  -8 1397.46   26.20
  -4   0   8 1383.46   25.80
  -4   0   8 1420.96   27.20
   3   0  -8   57.49    4.40
   3   0  -8   57.19    4.10
   3   0  -8   59.59    4.50
   3   0  -8   68.49    6.10
  -3   0   8   58.79    4.30
   2   0  -8    2.40    1.60
   2   0  -8    2.70    2.50
   2   0  -8    1.40    1.50
  -2   0   8    2.60    2.10
   1   0  -8  761.22   17.10
   1   0  -8  781.62   17.50
   1   0  -8  795.32   20.10
  -1   0   8  783.42   19.10
   0   0  -8  953.00   20.50
   0   0  -8 1000.50   20.90
   0   0   8  985.40   23.10
   0   0   8  971.20   22.90
  -1   0  -8  810.52   18.60
   1   0   8  797.02   20.80
  -2   0  -8  563.44   16.00
  -2   0  -8  564.24   15.40
   2   0   8  579.64   17.60
  -3   0  -8  811.72   20.30
  -3   0  -8  815.62   20.00
   3   0   8  848.12   22.90
  -4   0  -8 1210.38   26.50
  -4   0  -8 1203.38   27.40
   4   0   8 1246.78   30.30
  -5   0  -8    8.50    3.30
  -5   0  -8   11.70    3.10
   5   0   8   10.50    5.60
  -6   0  -8  128.89    7.60
  -6   0  -8  102.49    7.90
   6   0   8  106.39    7.60
   6   0   8  111.89    8.80
  -7   0  -8  109.29    7.30
  -7   0  -8  103.19    8.40
   7   0   8  102.49    8.90
   7   0   8  116.29    8.30
  -8   0  -8  222.78   10.80
  -8   0  -8  213.08   12.00
   8   0   8  218.78   11.10
   8   0   8  200.28   12.60
  11  -1  -8   52.49    7.50
 -11   1   8   58.69    6.60
  10  -1  -8  211.58   13.00
 -10   1   8  222.18   11.10
   9  -1  -8  157.88   10.70
  -9   1   8  173.88    9.30
  -9   1   8  177.48    7.70
  -9   1   8  168.58    5.60
   8  -1  -8   77.79    8.20
  -8   1   8   66.89    5.80
  -8   1   8   71.89    4.00
  -8   1   8   73.19    3.90
   7  -1  -8   12.00    3.70
  -7   1   8   13.30    2.20
  -7   1   8   13.80    3.10
   6  -1  -8 1182.88   28.80
   6  -1  -8 1172.58   24.80
  -6   1   8 1171.88   24.30
  -6   1   8 1109.79   22.20
   5  -1  -8   70.09    6.70
   5  -1  -8   81.69    5.20
  -5   1   8   84.69    5.10
  -5   1   8   79.19    4.80
  -5   1   8   84.19    5.20
   4  -1  -8    1.50    1.50
   4  -1  -8    5.90    2.80
   4  -1  -8    6.00    1.70
  -4   1   8    4.30    2.00
   3  -1  -8  236.48    7.80
   3  -1  -8  239.08   10.80
  -3   1   8  249.97    9.30
   2  -1  -8  230.98    7.80
   2  -1  -8  222.48   10.10
   2  -1  -8  204.78   10.00
  -2   1   8  210.58   10.30
   1  -1  -8  339.47   12.30
   1  -1  -8  319.67    9.50
  -1   1   8  334.87   11.80
   0  -1  -8   10.80    2.40
   0  -1  -8    9.40    2.90
   0  -1  -8    9.40    2.00
   0   1   8    7.90    2.10
   0   1   8    9.00    2.70
  -1  -1  -8  129.99    7.60
  -1  -1  -8  141.79    6.70
   1   1   8  139.59    8.20
  -2  -1  -8  252.27   10.50
  -2  -1  -8  268.17    9.70
   2   1   8  259.77   11.70
  -3  -1  -8 1032.80   24.20
  -3  -1  -8 1025.80   23.20
   3   1   8  991.90   26.40
  -4  -1  -8    4.40    2.50
  -4  -1  -8   10.70    3.20
   4   1   8    6.40    3.30
  -5  -1  -8    0.40    2.30
  -5  -1  -8    3.60    2.50
   5   1   8   -0.80    2.30
  -6  -1  -8  249.58   11.70
  -6  -1  -8  230.28   10.80
   6   1   8  239.58   11.70
   6   1   8  217.18   12.40
  -7  -1  -8   53.29    6.50
  -7  -1  -8   61.49    7.30
   7   1   8   49.99    9.80
   7   1   8   61.59    8.20
  -8  -1  -8   -2.80    2.50
  -8  -1  -8   -1.30    2.50
   8   1   8   -1.00    2.50
   8   1   8   -6.50    2.80
  11  -2  -8  149.39   11.30
 -11   2   8  171.78   10.10
  10  -2  -8  228.68   13.10
 -10   2   8  225.58   10.90
   9  -2  -8   66.79    7.50
  -9   2   8   62.59    4.40
  -9   2   8   77.29    6.10
   8  -2  -8   18.00    4.50
  -8   2   8   13.60    2.50
  -8   2   8   16.70    3.30
  -8   2   8   14.90    3.00
   7  -2  -8  154.98   10.10
  -7   2   8  160.58    7.60
  -7   2   8  169.98    7.20
   6  -2  -8  554.14   14.40
   6  -2  -8  581.04   18.90
  -6   2   8  566.34   14.70
  -6   2   8  549.65   14.00
   5  -2  -8  825.72   19.90
   5  -2  -8  781.92   17.00
   5  -2  -8  806.52   22.70
  -5   2   8  808.72   19.00
   4  -2  -8  492.65   16.50
   4  -2  -8  474.75   11.70
   4  -2  -8  476.45   11.60
  -4   2   8  497.15   15.80
   3  -2  -8   45.70    3.20
   3  -2  -8   40.80    5.40
   3  -2  -8   40.40    3.30
  -3   2   8   50.29    4.90
   2  -2  -8  739.33   15.10
   2  -2  -8  731.13   14.80
   2  -2  -8  766.02   20.80
  -2   2   8  756.52   19.60
   1  -2  -8    3.20    2.40
   1  -2  -8    3.80    1.70
   1  -2  -8    2.40    1.30
  -1   2   8    4.60    2.40
   0  -2  -8   14.10    3.40
   0  -2  -8   14.50    2.40
   0  -2  -8   15.10    3.50
   0   2   8   11.30    3.40
  -1  -2  -8 1133.79   26.70
  -1  -2  -8 1166.38   23.00
   1   2   8 1189.58   28.20
   1   2   8 1124.19   22.40
  -2  -2  -8  204.38    9.90
  -2  -2  -8  213.18    8.30
   2   2   8  217.68   11.00
  -3  -2  -8  131.99    7.90
   3   2   8  141.19    9.50
  -4  -2  -8   20.50    3.80
  -4  -2  -8   19.90    3.70
   4   2   8   20.30    4.80
  -5  -2  -8  347.67   13.70
  -5  -2  -8  342.27   13.00
   5   2   8  336.77   15.50
  -6  -2  -8  179.88   11.80
  -6  -2  -8  163.18    9.70
   6   2   8  161.18   10.60
   6   2   8  165.68   11.10
  -7  -2  -8   43.90    6.00
  -7  -2  -8   65.89    7.00
   7   2   8   53.19    8.00
   7   2   8   54.89    7.20
  11  -3  -8   32.00    5.90
  10  -3  -8   16.80    4.70
 -10   3   8   15.70    3.60
 -10   3   8    7.90    3.30
   9  -3  -8   32.50    6.10
   8  -3  -8   90.89    8.20
  -8   3   8   81.49    6.50
   7  -3  -8  637.14   24.40
  -7   3   8  556.14   14.30
  -7   3   8  581.94   15.90
   6  -3  -8   -3.10    2.60
  -6   3   8    2.90    2.00
   5  -3  -8   -0.50    1.30
   5  -3  -8    1.30    3.10
   5  -3  -8   -1.30    1.20
  -5   3   8    5.80    2.20
   4  -3  -8  736.43   14.40
   4  -3  -8  756.02   14.70
   4  -3  -8  802.52   22.50
  -4   3   8  775.42   19.90
   3  -3  -8   39.20    3.10
   3  -3  -8   38.20    2.50
   3  -3  -8   43.10    5.90
  -3   3   8   36.70    4.90
   2  -3  -8   -1.60    2.30
   2  -3  -8    0.10    1.00
   2  -3  -8    1.30    1.00
  -2   3   8   -2.10    1.80
   1  -3  -8   68.19    6.40
   1  -3  -8   76.69    3.50
  -1   3   8   78.49    6.50
   0  -3  -8  843.32   22.80
   0  -3  -8  852.41   16.60
   0  -3  -8  862.11   16.50
   0   3   8  855.61   23.10
   0   3   8  855.21   16.50
  -1  -3  -8  240.68   11.10
  -1  -3  -8  222.48   10.40
   1   3   8  234.18   11.40
   1   3   8  209.18    8.10
  -2  -3  -8    6.80    2.90
  -2  -3  -8   10.90    2.40
   2   3   8   12.00    3.80
  -3  -3  -8  275.27   12.30
  -3  -3  -8  290.77   11.30
   3   3   8  273.17   13.70
  -4  -3  -8   23.30    3.90
  -4  -3  -8   26.70    5.30
   4   3   8   18.20    4.50
  -5  -3  -8  180.28    9.30
  -5  -3  -8  165.98   10.10
   5   3   8  154.78   11.00
  -6  -3  -8   -1.20    2.60
  -6  -3  -8    3.30    3.00
   6   3   8   -2.60    2.80
   6   3   8   -2.60    2.70
  -7  -3  -8   67.99    7.20
  -7  -3  -8   68.79    7.30
   7   3   8   59.29   13.10
   7   3   8   71.99    7.80
  10  -4  -8   -2.50    2.60
 -10   4   8   -3.00    2.00
 -10   4   8    0.30    2.60
   9  -4  -8  112.59    9.50
  -9   4   8  106.49    7.00
  -9   4   8  110.49    6.40
   8  -4  -8  291.57   14.70
  -8   4   8  315.57   11.90
  -8   4   8  318.77   10.00
   7  -4  -8  100.09    9.00
   7  -4  -8   89.69    5.30
  -7   4   8  103.29    6.90
   6  -4  -8    1.10    1.60
   6  -4  -8    6.20    3.80
   6  -4  -8    3.40    1.60
  -6   4   8    4.40    2.60
   5  -4  -8  249.88    5.90
   5  -4  -8  246.78    5.90
   5  -4  -8  273.17   12.90
  -5   4   8  266.17   11.30
   4  -4  -8  125.59    9.10
  -4   4   8  120.89    7.80
   3  -4  -8  483.25   17.10
  -3   4   8  494.45   16.30
   2  -4  -8  156.38    9.60
  -2   4   8  147.09    8.80
   1  -4  -8  472.05   16.60
  -1   4   8  475.65   16.60
   0  -4  -8  957.80   16.70
   0  -4  -8  961.20   25.50
   0  -4  -8  945.31   19.20
   0   4   8  986.40   26.20
  -1  -4  -8   57.69    3.60
  -1  -4  -8   48.10    5.90
   1   4   8   48.90    3.50
   1   4   8   53.89    6.70
  -2  -4  -8    1.30    1.70
   2   4   8   -2.70    2.30
   2   4   8   -0.30    1.60
  -3  -4  -8  345.67   11.00
  -3  -4  -8  369.16   15.10
   3   4   8  355.86   15.70
  -4  -4  -8  344.07   14.80
  -4  -4  -8  349.07   12.00
   4   4   8  358.26   16.20
  -5  -4  -8   22.90    4.20
  -5  -4  -8   19.80    4.30
   5   4   8   14.80    4.30
  -6  -4  -8   16.80    4.00
  -6  -4  -8    7.30    3.50
   6   4   8   10.60    4.60
   6   4   8   16.10    4.80
  10  -5  -8  163.98   12.00
 -10   5   8  154.68    9.00
 -10   5   8  164.78    7.80
   9  -5  -8  145.69   11.00
  -9   5   8  125.89    8.40
  -9   5   8  143.29    6.60
   8  -5  -8   38.10    6.30
  -8   5   8   42.70    5.40
   7  -5  -8  269.67   13.80
   7  -5  -8  248.88    9.30
  -7   5   8  278.77   12.00
   6  -5  -8  150.98   10.30
  -6   5   8  157.88    9.30
   5  -5  -8  133.19    9.50
  -5   5   8  130.19    8.70
   4  -5  -8    0.50    3.10
  -4   5   8    2.50    2.60
  -3   5   8   42.80    5.80
  -2   5   8  131.49    8.80
   1  -5  -8  819.02   27.70
  -1   5   8  749.13   23.50
   0  -5  -8    4.00    3.50
   0   5   8    3.40    3.10
  -1  -5  -8   51.19    2.90
  -1  -5  -8   58.09    6.70
   1   5   8   45.70    2.60
   1   5   8   52.49    7.10
  -2  -5  -8  239.98   12.20
   2   5   8  236.08   12.90
  -3  -5  -8  148.09   10.10
  -3  -5  -8  145.49    6.70
   3   5   8  136.39   10.10
  -4  -5  -8    8.30    2.70
  -4  -5  -8    6.70    3.20
   4   5   8   12.70    3.90
  -5  -5  -8   68.69    6.40
  -5  -5  -8   70.09    7.50
   5   5   8   53.09    8.90
   9  -6  -8   98.39    9.80
   8  -6  -8   -0.90    3.00
   7  -6  -8   31.90    5.70
  -7   6   8   35.10    6.30
   6  -6  -8  367.56   16.60
  -6   6   8  384.76   17.90
   5  -6  -8   14.20    4.40
  -5   6   8    5.40    5.00
   4  -6  -8    5.60    3.60
   3  -6  -8  211.08   11.80
  -3   6   8  211.38   11.90
   2  -6  -8  358.66   15.50
  -2   6   8  331.27   14.90
   1  -6  -8   91.19    8.00
  -1   6   8   95.09    8.10
   0  -6  -8    5.10    3.00
   0   6   8    0.10    3.10
  -1  -6  -8  155.58   10.10
   1   6   8  139.59   10.30
  -2  -6  -8  171.58   10.80
   2   6   8  191.18   12.10
  -3  -6  -8   44.90    6.60
   3   6   8   22.70    5.20
  -4  -6  -8    3.90    3.30
   8  -7  -8   64.99    7.80
  -8   7   8   62.29    7.40
   7  -7  -8   52.09    7.20
  -7   7   8   44.10    6.50
   6  -7  -8   17.30    4.90
  -6   7   8   23.70    5.20
   5  -7  -8   14.90    4.10
  -5   7   8   10.20    4.10
   4  -7  -8  297.97   14.70
  -4   7   8  279.27   13.90
   3  -7  -8   31.60    6.00
  -3   7   8   30.00    5.30
   2  -7  -8   37.20    6.10
  -2   7   8   29.50    5.50
   1  -7  -8  194.78   11.90
  -1   7   8  203.28   12.30
   0  -7  -8   87.69    8.00
   0   7   8   79.89    8.50
  -1  -7  -8  165.98   10.70
   1   7   8  141.99   10.70
  -2  -7  -8   -4.70    2.30
   2   7   8   -0.10    2.90
  -7   8   8  150.18   10.60
   6  -8  -8    2.40    3.30
  -6   8   8    2.10    3.60
   5  -8  -8   92.69    8.90
  -5   8   8   75.19    8.30
   4  -8  -8   81.89    8.70
  -4   8   8   84.09    8.40
   3  -8  -8   55.19    7.60
  -3   8   8   32.80    5.70
   2  -8  -8   -4.60    3.20
  -2   8   8    1.00    2.70
   1  -8  -8   74.29    7.80
  -1   8   8   64.79    7.60
   0   8   8  235.38   21.30
   1  12  -9  275.37   10.80
   1  12  -9  286.17   15.00
   0  12  -9  377.96   17.40
   0 -12   9  339.67   14.50
  -1  12  -9   30.80    6.10
   1 -12   9   33.00    5.50
  -2  12  -9   20.00    5.00
   2 -12   9   40.80    6.00
  -3  12  -9  285.27   15.10
   3 -12   9  322.67   15.30
   4  11  -9   33.60    5.30
   3  11  -9    3.40    2.50
   3  11  -9    2.90    3.60
   3  11  -9    0.40    2.90
  -3 -11   9    7.90    3.20
   2  11  -9   43.10    5.30
   2  11  -9   47.30    7.20
   2  11  -9   46.60    5.50
  -2 -11   9   62.69    6.00
   1  11  -9  220.48   13.10
   1  11  -9  234.48    9.60
  -1 -11   9  238.08   10.90
   0  11  -9   22.10    5.30
   0  11  -9   23.90    3.20
   0 -11   9   24.10    4.70
  -1  11  -9   10.80    4.20
   1 -11   9   10.70    3.50
  -2  11  -9  114.59    9.80
   2 -11   9  116.19    8.60
  -3  11  -9  158.28   11.00
   3 -11   9  155.18   10.40
  -4  11  -9   41.20    6.70
   4 -11   9   42.20    6.20
  -5  11  -9    1.60    3.50
   5 -11   9    0.20    2.80
   5  10  -9   93.19    8.20
   5  10  -9   89.19    8.60
  -5 -10   9   94.29    8.50
   4  10  -9    4.30    2.00
   4  10  -9    3.80    3.40
   4  10  -9   -2.00    3.00
   3  10  -9  289.97   14.80
   3  10  -9  294.57   10.90
   3  10  -9  300.87   12.40
  -3 -10   9  298.47   10.60
   2  10  -9  284.87   11.40
  -2 -10   9  291.27   11.10
   1  10  -9   61.39    7.50
  -1 -10   9   71.29    6.20
   0  10  -9   62.59    4.60
   0  10  -9   52.19    7.00
   0 -10   9   60.89    6.10
  -1  10  -9  285.27   14.10
   1 -10   9  292.87   12.60
  -2  10  -9  408.96   17.10
  -3  10  -9   87.59    8.30
   3 -10   9   79.59    7.70
  -4  10  -9   53.19    7.30
   4 -10   9   67.39    7.50
  -5  10  -9  262.77   14.50
   5 -10   9  279.77   14.50
  -6  10  -9  334.37   16.50
   6 -10   9  338.37   16.30
   7   9  -9    6.50    4.90
   7   9  -9    7.80    3.60
   6   9  -9   11.90    4.50
   6   9  -9   15.60    4.80
  -6  -9   9   16.60    4.70
   5   9  -9   17.40    4.80
   5   9  -9    8.50    3.70
  -5  -9   9   17.00    4.30
   4   9  -9   62.79    7.20
   4   9  -9   72.59    6.70
  -4  -9   9   61.49    7.30
  -4  -9   9   67.29    4.70
   3   9  -9  101.19    7.30
   3   9  -9   83.19    5.50
   3   9  -9   86.49    8.00
  -3  -9   9   89.69    5.40
   2   9  -9  121.39    9.60
   2   9  -9  135.79    7.40
  -2  -9   9  134.59    7.10
   1   9  -9  253.97    9.50
   1   9  -9  268.17   13.40
  -1  -9   9  255.67   10.50
   0   9  -9  146.19    6.20
   0   9  -9  174.98    9.60
   0   9  -9  168.58   10.50
   0  -9   9  167.88    9.10
  -1   9  -9  289.67    7.30
  -1   9  -9  301.67   14.20
   1  -9   9  311.67   12.70
  -2   9  -9    9.70    3.70
   2  -9   9    5.90    3.20
  -3   9  -9   -0.10    2.70
  -4   9  -9   95.59    8.50
  -5   9  -9  328.17   15.80
   5  -9   9  342.37   15.40
  -6   9  -9   96.19    9.20
   6  -9   9   87.39    8.10
  -7   9  -9   22.40    5.20
   7  -9   9   29.00    5.80
   8   8  -9  150.68   12.20
   8   8  -9  198.68   12.70
   7   8  -9  125.39    9.70
   7   8  -9  116.59    9.80
  -7  -8   9  109.29    9.20
   6   8  -9   93.79    8.30
   6   8  -9   94.89    9.00
  -6  -8   9  103.49    9.10
   5   8  -9  212.08   11.20
   5   8  -9  196.08   11.80
  -5  -8   9  193.18   11.60
   4   8  -9  326.57    9.00
   4   8  -9  350.56   13.70
   4   8  -9  357.46   15.60
  -4  -8   9  336.87   14.90
  -4  -8   9  333.27    9.00
   3   8  -9   18.00    4.30
   3   8  -9   14.00    3.30
  -3  -8   9   14.20    2.60
   2   8  -9   37.20    4.30
   2   8  -9   31.40    6.20
  -2  -8   9   34.60    4.00
   1   8  -9  675.73   16.60
  -1  -8   9  659.13   17.40
   0   8  -9  809.62   26.90
   0   8  -9  793.12   16.80
   0  -8   9  837.82   21.00
  -1   8  -9  230.08    7.90
  -1   8  -9  204.68   17.70
  -1   8  -9  229.18    6.30
   1  -8   9  251.67   10.90
  -2   8  -9   29.00    6.30
   2  -8   9   39.90    5.50
  -3   8  -9  442.36   17.30
   3  -8   9  439.06   16.00
  -4   8  -9  573.64   20.00
   4  -8   9  543.35   19.60
  -5   8  -9   61.49    8.00
   5  -8   9   81.99    7.60
  -6   8  -9  117.09    9.70
   6  -8   9  130.19    9.70
  -7   8  -9  194.08   12.60
   7  -8   9  197.58   12.40
   8   7  -9    1.30    3.50
   8   7  -9    5.30    3.40
  -8  -7   9   11.90    3.70
   7   7  -9    0.30    3.00
  -7  -7   9   -3.40    1.90
   6   7  -9  228.08   12.70
   6   7  -9  216.08   12.30
  -6  -7   9  237.28   12.60
   5   7  -9  109.99    8.80
   5   7  -9  128.89    8.80
  -5  -7   9  116.59    9.10
   4   7  -9   -1.60    1.00
   4   7  -9   -1.40    2.10
   4   7  -9   -1.30    1.20
  -4  -7   9    2.10    1.30
  -4  -7   9   -1.40    2.90
   3   7  -9    5.40    1.90
   3   7  -9    3.10    2.90
   3   7  -9   10.90    3.00
   2   7  -9  307.67   13.30
  -2  -7   9  312.87   10.20
   1   7  -9  341.27   10.90
   1   7  -9  366.06   14.50
   0   7  -9  169.68    9.80
   0   7  -9  158.08    6.20
   0  -7   9  158.78    6.40
   0  -7   9  165.38    8.40
  -1   7  -9   24.60    2.60
  -1   7  -9   25.70    2.40
  -1   7  -9   31.70    5.40
   1  -7   9   25.60    2.70
   1  -7   9   20.90    3.80
  -2   7  -9    2.80    2.60
   2  -7   9    0.40    2.30
  -3   7  -9  208.48   11.70
   3  -7   9  202.68   10.50
  -4   7  -9   60.59    6.70
   4  -7   9   45.70    6.20
  -5   7  -9   45.50    6.50
   5  -7   9   43.90    6.20
  -6   7  -9  102.19    8.90
   6  -7   9  107.59    8.70
  -7   7  -9  179.18   12.10
   7  -7   9  207.18   12.50
  -8   7  -9    2.50    3.70
   8  -7   9    5.10    3.50
   9   6  -9  119.19    9.90
  -9  -6   9  118.29    9.60
   8   6  -9   -0.40    2.60
   8   6  -9    2.50    2.90
  -8  -6   9    5.80    3.20
   7   6  -9   86.89    8.30
   7   6  -9   89.49    8.30
  -7  -6   9   81.39    8.00
   6   6  -9  292.97   13.70
   6   6  -9  282.77   13.80
  -6  -6   9  277.97   13.50
   5   6  -9  441.56   15.70
   4   6  -9    0.50    1.10
   4   6  -9   -1.90    2.10
   4   6  -9   -1.30    2.10
  -4  -6   9   -2.30    1.90
   3   6  -9  574.54   18.60
   3   6  -9  563.34   16.50
  -3  -6   9  566.44   13.20
   2   6  -9  828.42   22.50
   2   6  -9  821.72   22.80
  -2  -6   9  805.62   18.00
   1   6  -9  265.87    9.50
   1   6  -9  293.27   12.70
  -1  -6   9  284.37   10.00
   0   6  -9   11.90    3.50
   0  -6   9   12.00    2.40
   0  -6   9   13.40    2.90
  -1   6  -9  455.85   16.00
  -1   6  -9  422.46   10.30
   1  -6   9  445.26   14.50
   1  -6   9  428.06   10.50
  -2   6  -9  143.89    9.30
  -2   6  -9  155.18    4.70
   2  -6   9  151.88    4.70
   2  -6   9  164.18    8.80
  -3   6  -9  163.78    9.90
   3  -6   9  160.48    9.10
  -4   6  -9   47.50    7.10
   4  -6   9   54.69    6.50
  -5   6  -9  584.04   20.20
   5  -6   9  573.04   19.60
  -6   6  -9  334.07   15.20
   6  -6   9  326.37   15.00
  -7   6  -9   61.89    8.00
   7  -6   9   68.69    7.30
  -8   6  -9   25.70    5.30
   8  -6   9   25.80    5.50
   9   5  -9    0.60    3.00
  -9  -5   9   -3.90    2.80
   8   5  -9   10.50    3.90
  -8  -5   9    5.50    3.60
   7   5  -9   54.29    6.60
   7   5  -9   42.30    6.40
  -7  -5   9   42.60    6.10
   6   5  -9   64.39    6.60
   5   5  -9   17.50    4.40
   5   5  -9   24.90    4.40
  -5  -5   9   23.90    4.60
   4   5  -9  233.38   11.30
   4   5  -9  226.58    6.20
   4   5  -9  240.78   10.80
  -4  -5   9  238.58   11.30
   3   5  -9  689.83   16.10
   3   5  -9  724.83   19.00
   3   5  -9  696.93   20.30
  -3  -5   9  707.23   15.00
   2   5  -9    0.70    2.10
   2   5  -9   -2.70    1.30
   2   5  -9   -1.60    1.70
  -2  -5   9    3.10    1.70
   1   5  -9   55.49    6.00
   1   5  -9   53.69    4.40
  -1  -5   9   48.90    4.50
   0   5  -9    9.30    3.30
   0   5  -9    8.40    2.20
   0  -5   9    4.80    2.30
   0  -5   9    5.40    1.80
  -1   5  -9  530.25   17.00
  -1   5  -9  510.75   12.20
   1  -5   9  512.15   15.70
   1  -5   9  507.85   13.30
  -2   5  -9  140.19    8.70
  -2   5  -9  140.49    5.10
   2  -5   9  136.29    5.30
   2  -5   9  142.59    8.30
  -3   5  -9  221.18   11.20
   3  -5   9  228.88   11.00
   3  -5   9  214.28    6.00
  -4   5  -9  557.24   10.30
  -4   5  -9  582.54   19.00
   4  -5   9  609.94   19.20
   4  -5   9  565.64   10.70
   4  -5   9  547.55   10.60
   5  -5   9  142.09   11.70
  -6   5  -9  104.89    8.70
   6  -5   9  105.39    8.50
  -7   5  -9   21.50    5.30
   7  -5   9   20.20    4.90
  -8   5  -9  100.49    9.60
   8  -5   9  101.89    9.30
  10   4  -9    2.00    3.40
 -10  -4   9   -1.70    3.20
   9   4  -9  164.08   11.10
  -9  -4   9  155.18   10.50
   8   4  -9   95.89    8.80
  -8  -4   9  107.59    9.00
   7   4  -9   41.60    7.50
   6   4  -9   28.60    5.40
   6   4  -9   30.50    5.10
  -6  -4   9   28.10    4.80
   5   4  -9  232.98   11.20
   5   4  -9  246.58   11.30
  -5  -4   9  221.88   10.80
   4   4  -9  766.12   14.70
   4   4  -9  801.62   21.10
   4   4  -9  792.62   21.60
  -4  -4   9  802.02   21.40
  -4  -4   9  762.02   17.60
   3   4  -9  297.57   10.70
   3   4  -9  286.87   12.00
   3   4  -9  281.97   11.10
  -3  -4   9  277.37    8.30
   2   4  -9    4.40    2.50
   2   4  -9    4.10    2.90
   2   4  -9    2.00    1.60
  -2  -4   9    4.70    1.80
   1   4  -9 1042.10   22.50
   1   4  -9 1050.09   24.90
  -1  -4   9 1004.10   22.20
   0   4  -9  464.55   12.50
   0   4  -9  451.95   15.00
   0  -4   9  448.86   12.50
   0  -4   9  476.55   16.90
  -1   4  -9  500.45   16.10
   1  -4   9  503.95   12.80
   1  -4   9  497.85   15.50
  -2   4  -9    0.80    1.50
  -2   4  -9    4.00    2.70
   2  -4   9    0.30    2.00
  -3   4  -9 1152.18   21.40
  -3   4  -9 1178.08   28.10
   3  -4   9 1152.68   21.80
   3  -4   9 1138.69   28.00
  -4   4  -9  947.81   25.30
  -4   4  -9  936.81   18.10
   4  -4   9  958.10   25.60
   4  -4   9  925.41   18.30
  -5   4  -9  196.98   11.20
  -5   4  -9  202.48    6.50
   5  -4   9  182.68    6.60
   5  -4   9  202.28    6.80
  -6   4  -9   63.59    6.90
   6  -4   9   61.39    3.90
   6  -4   9   64.09    6.90
   6  -4   9   47.00    5.40
  -7   4  -9  148.69   10.30
   7  -4   9  142.99   10.30
  -8   4  -9  556.14   20.50
   8  -4   9  500.65   20.10
  10   3  -9   42.70    6.60
 -10  -3   9   41.30    5.80
   9   3  -9  113.29    9.60
  -9  -3   9  130.89    9.40
   8   3  -9    3.00    3.50
  -8  -3   9    4.20    2.90
   7   3  -9  194.88   17.30
   7   3  -9  200.58   11.00
  -7  -3   9  192.18   10.60
   6   3  -9  357.86   14.40
   6   3  -9  386.66   14.60
  -6  -3   9  352.26   13.70
   5   3  -9  149.59    8.80
   5   3  -9  145.39    8.50
  -5  -3   9  149.69    8.60
  -5  -3   9  143.69    3.60
   4   3  -9   50.89    5.60
   4   3  -9   41.20    3.00
   4   3  -9   44.70    4.90
  -4  -3   9   48.30    3.10
  -4  -3   9   47.10    5.00
   3   3  -9  109.29    7.00
   3   3  -9  104.59    7.00
   3   3  -9  104.09    5.30
  -3  -3   9  101.49    5.70
   2   3  -9   41.30    4.40
   2   3  -9   45.70    5.70
   2   3  -9   31.50    4.30
  -2  -3   9   40.20    3.90
   1   3  -9  379.96   12.10
   1   3  -9  362.56   12.70
  -1  -3   9  375.06   11.80
   0   3  -9  274.27   10.90
   0   3  -9  275.97    9.70
   0  -3   9  279.87   10.70
  -1   3  -9  163.78    7.00
  -1   3  -9  167.38    8.60
   1  -3   9  160.78    8.50
   1  -3   9  160.38    8.40
  -2   3  -9    0.80    2.40
  -2   3  -9   -1.30    2.50
   2  -3   9   -2.70    1.60
   2  -3   9   -0.30    1.80
  -3   3  -9  855.01   22.50
  -3   3  -9  834.22   17.90
   3  -3   9  826.92   22.70
   3  -3   9  800.62   17.90
  -4   3  -9   40.60    5.60
  -4   3  -9   53.59    3.90
   4  -3   9   47.80    6.20
   4  -3   9   42.60    4.20
  -5   3  -9   16.40    4.10
  -5   3  -9    9.80    2.20
   5  -3   9    0.60    3.30
   5  -3   9    7.80    4.20
  -6   3  -9  118.89    9.00
  -6   3  -9  122.79    6.00
   6  -3   9  128.49    9.40
   6  -3   9  123.09    6.40
  -7   3  -9   65.59    7.20
   7  -3   9   72.59    5.30
   7  -3   9   81.59    7.80
   8  -3   9   46.10    5.00
   8  -3   9   37.00    6.40
  10   2  -9   97.79    9.00
 -10  -2   9  106.39    8.90
   9   2  -9   92.99    9.10
  -9  -2   9  103.49    8.50
   8   2  -9  203.58   11.70
  -8  -2   9  212.88   11.00
   7   2  -9  800.72   26.90
   7   2  -9  737.93   21.70
  -7  -2   9  768.92   21.40
   6   2  -9  495.45   16.10
   6   2  -9  489.35   17.00
  -6  -2   9  458.95   15.30
   5   2  -9  315.97   12.10
   5   2  -9  321.27   13.00
  -5  -2   9  310.27   11.80
  -5  -2   9  320.87    7.60
   4   2  -9    5.70    1.80
   4   2  -9    4.30    2.70
   4   2  -9    8.50    2.80
  -4  -2   9    4.90    1.70
  -4  -2   9    8.30    2.80
   3   2  -9   35.00    4.50
   3   2  -9   44.10    5.20
   3   2  -9   34.10    3.50
  -3  -2   9   40.10    3.70
   2   2  -9  929.21   22.40
   2   2  -9  935.11   22.00
  -2  -2   9  928.01   20.50
   1   2  -9   99.19    6.50
  -1  -2   9  112.39    6.50
   0   2  -9   13.20    3.20
   0   2  -9    7.80    2.50
   0  -2   9    8.30    2.80
  -1   2  -9  475.85   14.80
  -1   2  -9  487.95   13.60
   1  -2   9  470.25   15.20
  -2   2  -9  239.58   10.40
  -2   2  -9  216.88    8.50
   2  -2   9  226.58   10.60
  -3   2  -9  155.18    7.10
  -3   2  -9  150.08    8.70
   3  -2   9  146.19    9.10
  -4   2  -9    1.30    2.30
  -4   2  -9   -1.00    1.60
   4  -2   9    2.30    2.50
  -5   2  -9  314.17   12.40
  -5   2  -9  339.87   13.90
   5  -2   9  347.57   15.10
  -6   2  -9  213.08    8.60
  -6   2  -9  184.88   10.90
   6  -2   9  199.78   11.70
   6  -2   9  204.68    9.10
  -7   2  -9  145.79    7.50
  -7   2  -9  151.98   10.20
   7  -2   9  138.29    8.00
   7  -2   9  167.68   11.20
  -8   2  -9   91.99    8.30
   8  -2   9   76.99    7.00
   8  -2   9   91.39    8.50
  11   1  -9   29.90    7.20
  10   1  -9   15.40    4.70
 -10  -1   9   16.70    3.80
   9   1  -9   28.70    5.60
   8   1  -9    1.20    2.90
  -8  -1   9    4.30    2.50
   7   1  -9  463.35   19.70
   7   1  -9  407.46   14.90
  -7  -1   9  402.96   14.20
   6   1  -9  102.89    8.00
   6   1  -9   94.59    6.80
  -6  -1   9   94.19    6.60
  -6  -1   9   90.29    3.70
   5   1  -9   62.69    5.40
   5   1  -9   62.89    6.70
  -5  -1   9   58.89    3.80
  -5  -1   9   67.89    5.50
  -5  -1   9   60.59    3.90
   4   1  -9  238.08   10.90
   4   1  -9  237.88    8.10
   4   1  -9  249.18    9.90
  -4  -1   9  227.58   11.50
  -4  -1   9  234.48    7.90
   3   1  -9  181.08    9.60
   3   1  -9  200.48    9.80
  -3  -1   9  185.78    7.70
   2   1  -9  135.69    7.80
   2   1  -9  134.69    7.10
  -2  -1   9  139.69    7.00
   1   1  -9   68.29    5.40
   1   1  -9   68.49    6.00
  -1  -1   9   70.79    5.70
   0   1  -9  929.01   24.40
   0   1  -9  937.81   22.10
   0  -1   9  955.30   23.00
  -1   1  -9   11.40    3.10
  -1   1  -9   10.70    2.90
   1  -1   9   12.20    3.00
  -2   1  -9  192.18    8.80
  -2   1  -9  185.28    9.00
   2  -1   9  194.38   10.10
  -3   1  -9  177.78    9.20
  -3   1  -9  164.28    8.00
   3  -1   9  170.28    9.80
  -4   1  -9  150.08    7.60
  -4   1  -9  144.69    8.80
   4  -1   9  136.89    9.40
  -5   1  -9   59.39    5.10
  -5   1  -9   64.29    6.40
   5  -1   9   64.09    6.90
  -6   1  -9   61.29    8.60
  -6   1  -9   36.70    4.60
   6  -1   9   43.90    6.40
   6  -1   9   46.90    5.20
  -7   1  -9   14.00    4.20
  -7   1  -9   15.40    3.20
   7  -1   9   14.70    4.40
   7  -1   9   14.80    3.80
  -8   1  -9  108.59    9.30
   8  -1   9  116.89    8.50
   8  -1   9  129.09   12.10
 -11   0   9   82.79    7.80
  10   0  -9   -2.30    2.50
 -10   0   9   -2.80    2.40
   9   0  -9   17.00    4.90
  -9   0   9   16.50    3.80
   8   0  -9  288.97   14.10
  -8   0   9  303.57   12.20
   7   0  -9  110.49    7.30
  -7   0   9  112.29    4.60
  -7   0   9  104.89    4.40
  -7   0   9  117.19    7.30
   6   0  -9  111.09    8.30
   6   0  -9  125.19    7.20
  -6   0   9  113.19    6.70
  -6   0   9  109.09    5.10
  -6   0   9  122.69    7.70
   5   0  -9 1116.79   27.70
   5   0  -9 1119.49   27.80
  -5   0   9 1101.09   22.00
  -5   0   9 1121.89   22.40
   4   0  -9  162.78    7.60
   4   0  -9  166.28    9.70
  -4   0   9  157.78    7.10
   3   0  -9  336.77   10.90
   3   0  -9  311.57   12.60
  -3   0   9  335.47   11.20
   2   0  -9   57.39    4.70
   2   0  -9   56.49    5.90
  -2   0   9   42.90    5.10
   1   0  -9   97.99    5.80
   1   0  -9  115.39    7.50
  -1   0   9  102.59    6.80
   0   0  -9 1189.98   24.80
   0   0  -9 1197.28   26.80
   0   0   9 1186.88   27.50
  -1   0  -9  617.64   16.70
  -1   0  -9  601.34   17.10
   1   0   9  592.94   18.30
  -2   0  -9   81.89    6.10
  -2   0  -9   76.39    6.20
   2   0   9   96.09    7.40
  -3   0  -9  565.14   16.30
  -3   0  -9  543.65   16.40
   3   0   9  553.94   18.80
  -4   0  -9  553.44   16.40
  -4   0  -9  551.14   17.10
   4   0   9  547.75   19.80
  -5   0  -9   12.40    3.40
  -5   0  -9   17.50    3.60
   5   0   9   16.50    4.20
  -6   0  -9    0.10    2.20
  -6   0  -9   -0.10    4.90
   6   0   9   -4.40    2.10
   6   0   9    2.00    2.60
  -7   0  -9   80.39    7.50
  -7   0  -9   94.79    7.00
   7   0   9   74.99    7.30
   7   0   9   79.19    8.20
  11  -1  -9   -2.10    4.70
 -11   1   9    7.60    3.20
  10  -1  -9  179.98   12.40
   9  -1  -9   91.79    8.70
  -9   1   9   88.19    5.00
  -9   1   9  114.19    7.70
   8  -1  -9   13.90    4.20
  -8   1   9    6.50    2.00
  -8   1   9    1.40    2.10
   7  -1  -9  277.47   13.40
   7  -1  -9  308.87   11.40
  -7   1   9  288.77    8.90
  -7   1   9  297.47    9.20
  -7   1   9  291.57   10.90
   6  -1  -9   98.99    8.10
  -6   1   9  110.89    5.80
   5  -1  -9  465.95   13.20
   5  -1  -9  469.15   16.80
  -5   1   9  483.85   13.40
   4  -1  -9  114.09    6.00
   4  -1  -9  119.89    8.30
  -4   1   9  114.59    6.80
   3  -1  -9  169.48    6.90
   3  -1  -9  153.18    6.50
   3  -1  -9  154.58    9.20
  -3   1   9  161.78    8.00
   2  -1  -9  189.78   10.00
   2  -1  -9  181.38    7.30
   2  -1  -9  172.58    6.90
  -2   1   9  186.68    8.90
   1  -1  -9  681.73   19.40
   1  -1  -9  660.13   15.50
   1  -1  -9  681.23   15.80
  -1   1   9  671.33   19.00
   0  -1  -9   14.70    2.70
   0  -1  -9   15.60    3.80
   0   1   9   16.50    3.50
  -1  -1  -9   42.20    5.00
  -1  -1  -9   46.00    4.30
   1   1   9   33.80    5.10
  -2  -1  -9  698.83   19.70
  -2  -1  -9  721.83   21.10
   2   1   9  701.23   21.50
  -3  -1  -9  144.89    8.40
  -3  -1  -9  139.09    7.70
  -4  -1  -9    7.20    2.80
  -4  -1  -9    4.50    2.70
   4   1   9    2.10    2.80
  -5  -1  -9    3.00    2.50
  -5  -1  -9   -3.50    2.50
   5   1   9    7.50    3.80
   6   1   9  221.48   12.90
  -7  -1  -9   43.60    6.40
  -7  -1  -9   35.30    5.30
   7   1   9   40.20    6.10
   7   1   9   33.70    6.80
  10  -2  -9  141.09   10.70
 -10   2   9  143.49    8.50
   9  -2  -9  129.19   10.40
  -9   2   9  133.99    6.40
  -9   2   9  147.49    8.10
   8  -2  -9    9.40    2.80
   8  -2  -9   13.30    4.60
  -8   2   9   12.40    2.90
  -8   2   9   14.60    2.90
   7  -2  -9   83.99    6.90
   7  -2  -9   76.89    7.50
  -7   2   9   60.19    5.00
   6  -2  -9  450.85   12.70
  -6   2   9  444.26   12.30
   5  -2  -9  102.79    8.50
   5  -2  -9   91.49    5.20
   5  -2  -9   96.99    5.30
  -5   2   9   97.29    6.40
   4  -2  -9  235.38    8.40
   4  -2  -9  251.27   12.00
  -4   2   9  239.28   10.10
   3  -2  -9  348.07   10.30
   3  -2  -9  346.97   14.00
   3  -2  -9  335.77    9.30
  -3   2   9  342.87   12.60
   2  -2  -9  508.85   17.00
   2  -2  -9  498.05   11.90
   2  -2  -9  508.65   12.50
  -2   2   9  485.75   15.80
   1  -2  -9  244.48   11.60
   1  -2  -9  255.27    8.60
  -1   2   9  258.47   11.40
   0  -2  -9    5.40    2.80
   0  -2  -9    7.00    2.00
   0  -2  -9    5.90    1.80
   0   2   9    9.70    3.40
   0   2   9    2.40    1.70
  -1  -2  -9  141.49    6.70
  -1  -2  -9  142.79    8.60
   1   2   9  126.09    9.00
  -2  -2  -9  204.98   10.20
  -2  -2  -9  193.28    8.40
   2   2   9  195.08   16.80
  -3  -2  -9  188.48    8.60
  -3  -2  -9  194.28   10.10
   3   2   9  183.28   11.10
  -4  -2  -9   10.30    3.20
  -4  -2  -9   17.00    3.80
   4   2   9   18.50    4.40
  -5  -2  -9   73.39    7.10
  -5  -2  -9   61.49    6.30
   5   2   9   58.29    7.10
  -6  -2  -9  285.27   15.40
   6   2   9  259.47   13.40
   6   2   9  248.98   14.40
  10  -3  -9    5.40    3.90
 -10   3   9   16.50    3.30
   9  -3  -9   -7.10    2.70
  -9   3   9   -2.80    1.90
  -9   3   9   -0.10    2.20
   8  -3  -9  158.18   11.40
   8  -3  -9  150.48    7.60
  -8   3   9  162.78    7.90
  -8   3   9  187.78    9.20
   7  -3  -9  270.97    9.30
   7  -3  -9  281.47   14.20
  -7   3   9  256.17   10.30
  -7   3   9  274.57    9.10
   6  -3  -9   15.20    4.30
   6  -3  -9   23.80    4.30
   6  -3  -9   14.50    2.70
  -6   3   9   20.50    3.80
   5  -3  -9    4.30    1.70
   5  -3  -9    3.10    1.70
  -5   3   9    3.90    2.60
   4  -3  -9  122.19    4.60
   4  -3  -9  126.19    9.10
   4  -3  -9  129.89    4.80
  -4   3   9  110.19    7.50
   3  -3  -9   23.00    2.20
   3  -3  -9   23.80    4.50
  -3   3   9   24.70    4.40
   2  -3  -9  255.87    6.60
   2  -3  -9  255.87   12.40
  -2   3   9  281.37   12.20
   1  -3  -9  100.39    4.30
   1  -3  -9  103.09    4.40
   1  -3  -9  106.09    8.40
  -1   3   9  113.39    8.00
   0  -3  -9  196.78    6.70
   0  -3  -9  201.68    6.70
   0  -3  -9  205.58   11.00
   0   3   9  196.68   10.80
  -1  -3  -9  107.89    7.80
  -1  -3  -9   94.69    5.10
  -1  -3  -9   97.19    5.30
   1   3   9   97.29    5.10
  -2  -3  -9    1.80    1.80
   2   3   9    0.10    2.80
  -3  -3  -9   14.10    4.00
  -3  -3  -9   10.00    2.70
   3   3   9    8.20    3.60
  -4  -3  -9  176.48   10.20
  -4  -3  -9  166.38    8.60
   4   3   9  171.98   11.30
  -5  -3  -9  181.98   10.90
  -5  -3  -9  189.08    9.90
   5   3   9  178.68   12.20
  -6  -3  -9    4.10    2.90
  -6  -3  -9    5.30    3.60
   6   3   9   -4.60    3.00
   6   3   9   -2.60    3.10
 -10   4   9   23.60    4.30
 -10   4   9   25.50    3.80
   9  -4  -9   81.99    8.50
   9  -4  -9   79.69    6.10
  -9   4   9   79.09    6.70
  -9   4   9   83.49    5.40
   8  -4  -9  122.19    6.30
   8  -4  -9  125.09   10.50
  -8   4   9  116.39    5.70
  -8   4   9  132.79    8.00
   7  -4  -9  196.38   12.30
  -7   4   9  194.98    9.60
   6  -4  -9   13.10    4.00
   6  -4  -9    6.20    2.00
   6  -4  -9    6.20    2.00
  -6   4   9   12.10    3.50
   5  -4  -9   56.69    6.60
  -5   4   9   43.30    5.70
   4  -4  -9  107.99    8.70
  -4   4   9  106.19    7.60
   3  -4  -9  316.27   14.20
  -3   4   9  312.07   13.40
   2  -4  -9    0.00    2.30
  -2   4   9   -0.30    2.40
   1  -4  -9  202.68   11.90
  -1   4   9  207.38   13.50
   0  -4  -9  331.67    7.70
   0  -4  -9  348.97   14.80
   0   4   9  349.37   15.10
  -1  -4  -9   32.40    5.30
  -1  -4  -9   31.60    4.10
  -1  -4  -9   33.40    3.00
   1   4   9   28.40    5.30
  -2  -4  -9    6.80    3.20
  -2  -4  -9    2.30    1.70
   2   4   9    5.60    3.20
  -3  -4  -9  144.49   10.00
   3   4   9  134.69   10.60
  -4  -4  -9  230.68   12.80
  -4  -4  -9  241.18   10.10
   4   4   9  243.48   13.80
  -5  -4  -9  135.09   12.00
  -5  -4  -9  114.89    7.80
   5   4   9   93.59   16.40
   9  -5  -9   96.39    9.60
  -9   5   9   83.09    7.40
   8  -5  -9   74.39    8.60
  -8   5   9   78.99    7.50
   7  -5  -9   81.99    9.00
  -7   5   9   88.59    7.40
   6  -5  -9  265.27   14.10
  -6   5   9  282.07   12.70
   5  -5  -9  309.67   15.10
  -5   5   9  305.97   13.40
   4  -5  -9   15.90    4.60
  -4   5   9   20.40    5.00
   3  -5  -9   -6.30    2.10
  -3   5   9   -0.50    3.10
   2  -5  -9  429.26   17.10
  -2   5   9  418.96   16.80
   1  -5  -9  138.59    9.70
  -1   5   9  132.79    9.90
   0  -5  -9   98.59    8.70
   0   5   9   87.49    8.40
  -1  -5  -9    5.50    3.50
   1   5   9    5.10    3.20
  -2  -5  -9  220.08   12.20
   2   5   9  209.98   12.70
  -3  -5  -9   69.89    5.50
  -3  -5  -9   62.19    7.40
   3   5   9   70.29    8.30
  -4  -5  -9   33.60    5.80
  -4  -5  -9   63.59    8.80
   4   5   9   38.20    6.60
   8  -6  -9   10.10    5.10
  -8   6   9    6.50    3.80
   7  -6  -9   19.00    5.00
  -7   6   9   17.60    4.70
   6  -6  -9  371.26   17.20
  -6   6   9  365.46   15.40
   5  -6  -9  125.49    9.80
  -5   6   9  127.29    9.50
   4  -6  -9    8.60    3.80
  -4   6   9   11.50    3.90
   3  -6  -9  179.28   11.60
  -3   6   9  164.68   10.90
   2  -6  -9  182.08   11.40
  -2   6   9  169.38   11.00
   1  -6  -9  129.39    9.90
  -1   6   9  159.38   10.70
   0  -6  -9    5.40    3.50
   0   6   9    2.00    3.00
  -1  -6  -9   34.90    6.50
   1   6   9   16.30    5.10
  -2  -6  -9  148.69   10.70
   2   6   9  140.49   12.40
   6  -7  -9  142.39   12.20
  -6   7   9  107.49    9.20
   5  -7  -9   -2.20    2.70
  -5   7   9   -1.20    2.90
   4  -7  -9   98.49    9.50
  -4   7   9  103.19    8.80
   3  -7  -9  380.66   17.40
  -3   7   9  339.27   16.20
   2  -7  -9   12.10    4.10
  -2   7   9    8.20    4.00
   1  -7  -9   21.00    5.50
  -1   7   9   11.20    4.50
   0  -7  -9  126.19   15.60
   0   7   9  145.29   16.30
   3  11 -10   17.90    4.10
   3  11 -10   15.20    8.70
  -3 -11  10   24.50    4.00
   2  11 -10  132.19    8.30
   2  11 -10  133.59   11.10
  -2 -11  10  140.39    8.90
   1  11 -10   77.79    6.20
   1  11 -10   80.99    8.60
  -1 -11  10  102.09    7.60
   0  11 -10   55.79    7.60
  -1  11 -10   -4.10    2.60
   1 -11  10   -3.50    2.60
  -2  11 -10   11.20    4.10
   2 -11  10   15.60    4.50
   3 -11  10  136.39    9.90
   4 -11  10   86.69    8.00
   5  10 -10  172.38   12.20
   5  10 -10  153.78   10.40
   4  10 -10   14.10    4.50
   4  10 -10   19.50    4.70
   3  10 -10  177.98   11.60
   3  10 -10  171.48    8.20
   3  10 -10  186.28   10.00
  -3 -10  10  182.98    8.30
   2  10 -10  532.35   16.10
   2  10 -10  558.84   20.80
  -2 -10  10  527.05   15.70
   1  10 -10  131.69    9.80
  -1 -10  10  121.79    7.70
   0  10 -10   -3.20    2.70
   0  10 -10   -2.70    1.70
   0 -10  10    0.80    2.40
  -1  10 -10  180.18   11.80
   1 -10  10  165.68   10.20
  -2  10 -10  308.27   15.10
   2 -10  10  309.57   13.90
  -3  10 -10   73.39    8.10
   3 -10  10   80.29    7.80
  -4  10 -10   -5.20    2.60
   4 -10  10   -5.00    2.80
  -5  10 -10  180.58   14.20
   5 -10  10  195.08   12.30
   6   9 -10   58.49    7.50
   5   9 -10   -2.30    3.10
   5   9 -10   -4.30    2.60
  -5  -9  10   -0.20    2.90
   4   9 -10   12.20    4.30
   4   9 -10   10.80    3.40
   3   9 -10  134.69    8.50
   3   9 -10  139.49   10.10
  -3  -9  10  135.69    6.70
   2   9 -10  106.19    9.50
   2   9 -10  116.89    7.30
  -2  -9  10  136.49    7.20
   1   9 -10    2.00    2.10
   1   9 -10    2.20    3.10
  -1  -9  10    2.70    2.30
   0   9 -10  407.06   17.10
   0   9 -10  436.76   15.10
   0  -9  10  424.76   14.70
  -1   9 -10  112.09    9.60
   1  -9  10  103.79    7.80
  -2   9 -10   21.80    5.30
   2  -9  10   21.20    7.50
  -3   9 -10    0.00    3.00
   3  -9  10    2.30    2.80
  -4   9 -10  114.49    9.60
   4  -9  10  136.59    9.90
  -5   9 -10  196.88   12.50
   5  -9  10  208.48   12.30
  -6   9 -10  230.08   15.90
   6  -9  10  215.08   13.10
   7   8 -10  103.99    9.50
   6   8 -10   -2.80    2.40
   6   8 -10   -1.30    3.20
  -6  -8  10    3.10    2.90
   5   8 -10  104.99    8.90
  -5  -8  10  122.39    9.30
   4   8 -10  473.45   16.20
   4   8 -10  444.16   18.00
   4   8 -10  416.86   10.40
  -4  -8  10  417.16   10.40
   3   8 -10   89.89    8.20
   3   8 -10   79.49    6.70
  -3  -8  10   93.99    5.40
   2   8 -10    5.00    3.40
   2   8 -10    5.10    2.50
   1   8 -10   21.60    4.80
   1   8 -10   24.30    3.70
  -1  -8  10   21.20    3.70
   0   8 -10  784.42   17.00
   0   8 -10  843.52   24.90
   0   8 -10  839.62   20.80
   0  -8  10  777.92   17.50
   0  -8  10  837.72   21.60
  -1   8 -10  328.97    8.10
  -1   8 -10  337.77    9.10
  -1   8 -10  354.96   15.30
   1  -8  10  323.37   13.10
  -2   8 -10    8.00    3.50
   2  -8  10    9.70    3.50
  -3   8 -10  420.26   17.60
   3  -8  10  451.95   20.30
  -4   8 -10  768.12   24.70
   4  -8  10  786.22   24.10
  -5   8 -10  211.38   13.00
   5  -8  10  218.18   12.70
  -6   8 -10   17.10    4.80
   6  -8  10   15.60    4.40
   7  -8  10  154.98   17.10
   8   7 -10    5.70    4.40
   7   7 -10   -4.40    3.00
  -7  -7  10   -2.00    2.50
   6   7 -10  105.19    9.20
  -6  -7  10   82.19    8.00
   5   7 -10  125.19    8.90
   5   7 -10  114.09    9.20
  -5  -7  10  118.39    9.00
   4   7 -10   39.50    5.50
   4   7 -10   56.99    6.70
   4   7 -10   36.80    3.30
  -4  -7  10   42.90    6.10
  -4  -7  10   45.40    3.10
   3   7 -10    0.30    2.60
   3   7 -10    3.20    2.80
   3   7 -10   -1.60    1.80
  -3  -7  10    1.20    1.70
   2   7 -10  163.98    8.30
   2   7 -10  175.18   10.90
  -2  -7  10  186.88    7.90
   1   7 -10   35.70    4.20
  -1  -7  10   45.60    4.80
   0   7 -10   80.79    4.70
   0   7 -10   92.69    5.20
   0  -7  10   83.29    5.20
   0  -7  10  106.09    6.80
  -1   7 -10   63.49    3.90
  -1   7 -10   73.29    8.90
  -1   7 -10   64.39    3.60
   1  -7  10   67.79    4.00
   1  -7  10   62.89    6.20
  -2   7 -10  202.28    6.40
  -2   7 -10  212.18   11.60
  -2   7 -10  187.08    4.50
   2  -7  10  202.18   10.50
   2  -7  10  188.98    4.90
  -3   7 -10  613.44   20.90
   3  -7  10  588.84   19.50
  -4   7 -10   42.90    6.70
   4  -7  10   63.19    6.70
  -5   7 -10   18.40    5.30
   5  -7  10   19.90    4.50
  -6   7 -10   36.70    6.30
   6  -7  10   45.20    6.70
  -7   7 -10  261.67   14.60
   7  -7  10  231.28   13.40
   8   6 -10   14.20    4.20
   8   6 -10   12.20    4.40
  -8  -6  10   10.00    3.90
   7   6 -10  114.59    9.20
   7   6 -10  124.69   10.00
  -7  -6  10  119.19    9.60
   6   6 -10  205.78   12.10
   6   6 -10  195.18   11.50
  -6  -6  10  206.08   11.70
   5   6 -10  482.85   18.30
   5   6 -10  494.05   17.30
  -5  -6  10  497.55   18.00
   4   6 -10   71.69    6.50
   4   6 -10   52.69    3.30
   4   6 -10   60.19    8.30
  -4  -6  10   59.79    3.40
  -4  -6  10   64.19    7.90
   3   6 -10  147.29    6.30
   3   6 -10  162.48    9.90
   3   6 -10  151.18    8.50
  -3  -6  10  162.48    7.30
   2   6 -10  859.71   24.10
   2   6 -10  849.22   20.90
  -2  -6  10  851.01   19.30
   1   6 -10  185.38   10.40
   1   6 -10  161.68    7.60
  -1  -6  10  172.78    8.10
   0   6 -10   -1.10    1.50
   0   6 -10   -0.20    2.40
   0  -6  10   -2.30    1.80
   0  -6  10    2.90    2.40
  -1   6 -10   16.10    4.10
  -1   6 -10   15.80    2.40
   1  -6  10   16.30    3.80
  -2   6 -10  723.33   14.30
  -2   6 -10  755.42   23.20
   2  -6  10  710.33   14.40
   2  -6  10  758.22   21.30
  -3   6 -10  333.77   15.10
   3  -6  10  333.47   14.10
  -4   6 -10    7.10    3.70
   4  -6  10    7.40    3.20
  -5   6 -10  236.98   13.10
   5  -6  10  223.18   12.20
  -6   6 -10   73.09    8.00
   6  -6  10   90.39    8.70
  -7   6 -10  357.26   17.00
   7  -6  10  356.86   16.70
   9   5 -10   11.80    4.70
   9   5 -10   14.00    4.30
  -9  -5  10   19.00    5.20
   8   5 -10   48.70    7.10
   8   5 -10   62.29    7.70
  -8  -5  10   57.39    7.00
   7   5 -10  140.59   10.50
   7   5 -10  148.19   10.40
  -7  -5  10  148.69    9.90
   6   5 -10  103.89    8.50
  -6  -5  10  116.79    8.60
   5   5 -10    9.60    3.90
  -5  -5  10   16.70    6.60
   4   5 -10  164.48    9.20
   4   5 -10  161.58    9.70
   4   5 -10  144.09    5.20
  -4  -5  10  144.99    9.00
  -4  -5  10  146.59    5.20
   3   5 -10  397.26   15.10
   3   5 -10  383.56   10.70
   3   5 -10  422.46   14.10
  -3  -5  10  416.66   12.30
   2   5 -10    7.80    2.60
   2   5 -10   14.40    3.80
  -2  -5  10   12.50    2.60
   1   5 -10   -3.90    1.60
   1   5 -10   -0.70    2.10
  -1  -5  10   -2.80    1.40
   0   5 -10  358.36   14.10
   0   5 -10  344.57   10.90
   0  -5  10  344.37   12.50
  -1   5 -10   78.09    7.30
  -1   5 -10   80.49    4.90
   1  -5  10   78.59    5.00
   1  -5  10   96.89    6.90
  -2   5 -10  370.06   14.80
  -2   5 -10  366.56    9.70
   2  -5  10  372.76   14.30
  -3   5 -10   13.80    2.10
   3  -5  10   12.00    2.20
   3  -5  10   15.70    4.00
  -4   5 -10  161.18   10.50
   4  -5  10  143.79    5.10
   4  -5  10  146.19    9.80
  -5   5 -10  164.78   10.50
   5  -5  10  173.08   10.90
  -6   5 -10   54.09    7.20
   6  -5  10   51.99    7.40
  -7   5 -10    0.90    3.20
   7  -5  10    9.70    4.00
   9   4 -10    6.90    3.50
   9   4 -10   -2.60    3.00
  -9  -4  10    5.00    3.30
   8   4 -10  493.15   18.80
   8   4 -10  480.65   18.90
  -8  -4  10  466.95   17.90
   7   4 -10  134.49    9.50
   7   4 -10  132.39    9.50
  -7  -4  10  127.89    8.90
   6   4 -10    3.90    3.30
  -6  -4  10   11.80    4.30
   5   4 -10  154.28    9.30
   5   4 -10  161.08    9.60
  -5  -4  10  153.58    9.40
   4   4 -10  243.48    7.40
   4   4 -10  250.17   11.90
   4   4 -10  256.77   11.40
  -4  -4  10  249.68    7.30
   3   4 -10  660.63   19.70
   3   4 -10  689.93   19.20
   3   4 -10  679.23   15.70
  -3  -4  10  687.73   15.60
   2   4 -10    1.20    3.00
   2   4 -10    4.10    2.60
  -2  -4  10    2.20    1.70
   1   4 -10  331.57   13.20
  -1  -4  10  326.97   11.90
   0   4 -10  881.21   20.20
   0   4 -10  878.31   23.30
   0  -4  10  908.61   22.30
  -1   4 -10  455.25   12.50
  -1   4 -10  456.55   15.90
   1  -4  10  439.76   15.10
  -2   4 -10    9.70    3.40
  -2   4 -10    6.10    1.80
   2  -4  10    7.30    3.30
   2  -4  10    1.90    2.20
  -3   4 -10  207.38   11.10
   3  -4  10  197.78    7.60
   3  -4  10  203.28   11.00
  -4   4 -10  732.23   32.80
   4  -4  10  733.83   23.20
   4  -4  10  695.83   15.90
  -5   4 -10  187.18   11.20
   5  -4  10  175.68   11.00
  -6   4 -10   17.40    4.80
   6  -4  10   18.00    4.70
  -7   4 -10  406.16   17.60
   7  -4  10  422.46   18.10
 -10  -3  10   34.30    5.70
   9   3 -10   36.90    6.80
   9   3 -10   35.80    6.10
  -9  -3  10   36.80    5.80
   8   3 -10   79.59    8.60
   8   3 -10   82.89    8.10
  -8  -3  10   97.39    8.10
   7   3 -10    2.10    2.70
  -7  -3  10    8.00    5.20
   6   3 -10  316.67   14.30
   6   3 -10  326.17   13.70
  -6  -3  10  316.87   13.10
   5   3 -10  163.28    9.80
   5   3 -10  157.78    9.60
   5   3 -10  167.28    5.10
  -5  -3  10  175.28    5.20
  -5  -3  10  173.58    9.30
   4   3 -10   43.40    5.60
   4   3 -10   48.20    5.80
  -4  -3  10   49.90    3.60
   3   3 -10   29.60    4.50
   3   3 -10   30.50    4.40
   3   3 -10   24.60    3.80
  -3  -3  10   32.20    3.50
   2   3 -10   11.90    3.30
   2   3 -10   16.40    3.70
  -2  -3  10   14.00    3.00
   1   3 -10 1048.20   23.70
   1   3 -10 1011.40   24.70
  -1  -3  10  994.40   23.30
   0   3 -10   91.09    7.00
   0  -3  10   88.99    6.60
  -1   3 -10    4.00    2.60
  -1   3 -10    0.60    1.90
   1  -3  10    3.00    2.50
  -2   3 -10  414.66   14.90
  -2   3 -10  424.96   12.40
   2  -3  10  432.66   15.60
  -3   3 -10  493.55   13.40
  -3   3 -10  510.35   17.30
   3  -3  10  505.95   17.70
  -4   3 -10   55.89    6.50
  -4   3 -10   56.79    4.30
   4  -3  10   46.40    6.30
  -5   3 -10    2.20    3.40
  -5   3 -10    2.90    1.80
   5  -3  10    0.40    2.40
  -6   3 -10   99.09    5.60
  -6   3 -10   85.19    8.10
   6  -3  10  100.89    9.00
  -7   3 -10  107.79    9.00
   7  -3  10  105.49    9.30
   7  -3  10  123.29    7.00
  10   2 -10   52.79   12.10
 -10  -2  10   50.89    7.00
   9   2 -10  246.68   13.80
  -9  -2  10  226.88   12.10
   8   2 -10    7.90    3.50
   8   2 -10    6.70    4.00
  -8  -2  10    9.40    3.80
   7   2 -10   16.10    4.70
   7   2 -10   17.20    4.00
  -7  -2  10   14.10    3.60
   6   2 -10  985.50   26.90
   6   2 -10  957.00   24.50
  -6  -2  10  891.01   15.30
  -6  -2  10  938.51   23.80
  -6  -2  10  905.31   17.90
   5   2 -10  297.07   12.00
   5   2 -10  272.17    7.90
   5   2 -10  296.27   13.30
  -5  -2  10  280.67    7.90
  -5  -2  10  275.17   11.60
  -5  -2  10  276.17    8.00
   4   2 -10   88.69    7.00
   4   2 -10   79.99    6.40
   4   2 -10   71.59    4.80
  -4  -2  10   86.29    4.90
   3   2 -10   96.19    6.80
   3   2 -10   91.69    6.90
  -3  -2  10   96.69    5.70
   2   2 -10  469.25   14.80
   2   2 -10  467.45   15.30
  -2  -2  10  478.05   20.50
   1   2 -10  490.25   15.30
   1   2 -10  503.95   15.40
  -1  -2  10  487.85   15.00
   0   2 -10  156.08    8.10
   0   2 -10  149.09    8.30
   0  -2  10  167.18    8.80
  -1   2 -10  361.96   13.20
  -1   2 -10  373.86   12.30
   1  -2  10  365.06   14.00
  -2   2 -10  616.54   16.60
  -2   2 -10  643.44   18.70
   2  -2  10  642.54   20.00
  -3   2 -10  335.37   11.30
  -3   2 -10  319.27   13.30
   3  -2  10  336.87   14.30
  -4   2 -10    8.70    2.60
  -4   2 -10    5.20    3.30
   4  -2  10   10.80    3.80
  -5   2 -10   42.10    6.10
  -5   2 -10   52.79    4.70
   5  -2  10   52.09    7.20
  -6   2 -10  264.07   12.00
  -6   2 -10  255.27   12.90
   6  -2  10  285.67   11.40
   6  -2  10  285.77   14.60
  -7   2 -10  122.89    9.30
  -7   2 -10  128.69    7.40
   7  -2  10  129.79   10.40
   7  -2  10  110.49    8.00
  10   1 -10   36.80    6.80
 -10  -1  10   33.20    5.60
   9   1 -10    1.90    3.40
  -9  -1  10    8.20    3.20
   8   1 -10  186.78   11.60
   8   1 -10  191.08   10.20
  -8  -1  10  176.38    9.70
   7   1 -10   83.39    6.90
   7   1 -10   89.29    8.20
  -7  -1  10   72.29    6.40
   6   1 -10   72.09    6.30
  -6  -1  10   66.79    6.00
  -6  -1  10   81.59    4.10
  -6  -1  10   78.79    4.10
   5   1 -10  151.68    9.80
   5   1 -10  158.48    8.40
   5   1 -10  157.68    6.60
  -5  -1  10  158.88    6.40
  -5  -1  10  177.38    7.80
  -5  -1  10  165.48    8.50
   4   1 -10  154.38    9.30
   4   1 -10  150.18    8.10
  -4  -1  10  153.88    7.10
   3   1 -10  130.29    7.40
   3   1 -10  154.98    9.00
  -3  -1  10  150.88    7.50
   2   1 -10  359.46   13.60
   2   1 -10  366.56   12.40
  -2  -1  10  363.66   12.50
   1   1 -10   84.59    6.20
   1   1 -10   74.09    6.50
  -1  -1  10   78.79    6.40
   0   1 -10   33.10    4.40
   0   1 -10   39.90    5.00
   0  -1  10   36.30    5.20
  -1   1 -10  624.54   17.50
  -1   1 -10  605.74   17.40
   1  -1  10  625.74   19.20
  -2   1 -10  254.57   10.40
  -2   1 -10  259.27   11.10
   2  -1  10  259.17   12.20
  -3   1 -10   35.40    4.20
  -3   1 -10   32.60    5.00
  -4   1 -10    2.90    2.20
  -4   1 -10    1.00    2.90
   4  -1  10   -3.30    2.00
  -5   1 -10  332.87   12.40
   5  -1  10  344.27   15.90
  -6   1 -10   14.20    3.10
  -6   1 -10   15.30    4.00
   6  -1  10   11.10    4.20
   6  -1  10   12.50    3.90
  -7   1 -10    8.40    4.10
  -7   1 -10    9.30    3.10
   7  -1  10    4.10    3.20
  10   0 -10   46.30    8.40
 -10   0  10   60.19    6.60
   9   0 -10   11.70    4.30
  -9   0  10   19.40    4.80
   8   0 -10  144.19    8.80
   8   0 -10  127.09    9.90
  -8   0  10  130.09    8.20
   7   0 -10  501.95   18.80
   7   0 -10  507.85   15.90
  -7   0  10  475.15   15.10
  -7   0  10  456.15   12.10
  -7   0  10  471.75   11.30
   6   0 -10    0.30    2.20
   6   0 -10    1.30    3.40
  -6   0  10    1.10    2.20
  -6   0  10   -2.70    1.50
  -6   0  10   -3.30    1.70
   5   0 -10    6.30    2.40
   5   0 -10    6.90    3.50
  -5   0  10    7.10    2.30
   4   0 -10  229.58   11.50
   4   0 -10  225.98    9.50
  -4   0  10  215.48   10.60
   3   0 -10  393.06   12.60
   3   0 -10  388.96   14.80
  -3   0  10  398.46   13.00
   2   0 -10    1.00    2.00
   2   0 -10    1.80    2.30
  -2   0  10   -3.30    1.80
   1   0 -10   46.00    4.80
   1   0 -10   51.59    5.80
  -1   0  10   49.30    5.30
   0   0 -10  483.05   14.60
   0   0 -10  493.45   16.00
   0   0  10  486.25   16.40
  -1   0 -10  676.73   18.00
  -1   0 -10  679.03   19.30
   1   0  10  683.83   20.70
  -2   0 -10  118.49    7.70
  -2   0 -10  105.29    7.10
   2   0  10  122.49    8.70
  -3   0 -10  254.27   11.20
  -3   0 -10  266.87   11.20
   3   0  10  255.47   13.10
  -4   0 -10  219.78   10.40
  -4   0 -10  248.38   11.40
   4   0  10  215.18   12.30
  -5   0 -10  136.89   10.60
  -5   0 -10  153.48    8.80
   5   0  10  154.38   10.90
  -6   0 -10   12.30    4.10
  -6   0 -10    8.10    3.10
   6   0  10    2.90    3.10
   6   0  10    3.20    3.20
 -10   1  10   38.50    5.60
   9  -1 -10  251.97   11.80
   9  -1 -10  224.78   13.30
  -9   1  10  234.58   10.80
   8  -1 -10  143.09   10.30
   8  -1 -10  125.49    8.10
  -8   1  10  143.29    7.90
   7  -1 -10   64.19    5.50
   7  -1 -10   66.19    7.20
  -7   1  10   67.09    5.40
  -7   1  10   66.59    4.80
   6  -1 -10   84.59    6.00
   6  -1 -10   81.19    8.40
  -6   1  10   85.69    5.70
   5  -1 -10  236.38    9.50
  -5   1  10  228.08    9.30
   4  -1 -10    8.00    4.00
   4  -1 -10    3.80    2.20
  -4   1  10    9.50    2.70
   3  -1 -10   -1.40    1.60
   3  -1 -10    1.00    2.70
  -3   1  10    0.20    1.90
   2  -1 -10  317.37   10.20
   2  -1 -10  323.87   13.70
  -2   1  10  302.57   12.30
   1  -1 -10  459.05   12.90
   1  -1 -10  452.85   15.90
  -1   1  10  455.95   15.90
   0  -1 -10  172.98    7.80
   0  -1 -10  164.38    9.40
   0   1  10  163.38    9.60
  -1  -1 -10    2.10    2.50
  -1  -1 -10    1.50    2.90
   1   1  10   -3.10    2.40
  -2  -1 -10   53.09    6.00
  -2  -1 -10   56.69    5.40
   2   1  10   61.79    6.80
  -3  -1 -10  118.99    7.90
  -3  -1 -10  130.89    7.90
   3   1  10  120.69    9.50
  -4  -1 -10  273.37   12.40
  -4  -1 -10  275.57   11.90
   4   1  10  260.07   14.00
  -5  -1 -10   10.80    3.60
  -5  -1 -10   10.40    3.40
   5   1  10    7.70    4.10
  -6  -1 -10    5.60    3.50
  -6  -1 -10    1.50    3.00
   6   1  10    5.20    3.30
  10  -2 -10  113.59   10.90
 -10   2  10  106.19    7.90
   9  -2 -10  158.98    8.90
   9  -2 -10  162.18   11.60
  -9   2  10  142.59    6.90
  -9   2  10  150.48    8.30
   8  -2 -10   63.99    7.50
   8  -2 -10   63.09    5.60
  -8   2  10   57.89    7.10
  -8   2  10   57.39    5.20
   7  -2 -10   38.10    6.40
   7  -2 -10   31.40    4.00
  -7   2  10   42.10    4.50
  -7   2  10   37.90    4.40
   6  -2 -10  172.58   10.90
   6  -2 -10  166.48    7.40
  -6   2  10  171.78    8.40
   5  -2 -10  122.19    9.30
   5  -2 -10  109.89    6.00
  -5   2  10  117.09    7.10
   4  -2 -10  262.37    8.70
   4  -2 -10  263.07    8.40
   4  -2 -10  238.38   15.30
  -4   2  10  238.48   10.60
   3  -2 -10  253.07    8.00
   3  -2 -10  246.68   14.20
  -3   2  10  259.37   11.50
   2  -2 -10  456.25   16.90
   2  -2 -10  454.45   11.50
  -2   2  10  482.45   16.40
   1  -2 -10  514.15   17.70
   1  -2 -10  488.65   12.50
   1  -2 -10  495.95   12.80
  -1   2  10  523.25   17.80
   0  -2 -10    2.20    2.00
   0  -2 -10   -0.60    2.30
   0   2  10    5.00    3.20
  -1  -2 -10   52.29    6.20
  -1  -2 -10   45.30    4.50
   1   2  10   46.90    6.80
  -2  -2 -10  133.29    7.10
   2   2  10  129.79    9.50
  -3  -2 -10  159.98    8.30
  -3  -2 -10  169.18   10.00
   3   2  10  154.18   10.60
  -4  -2 -10   12.60    3.40
  -4  -2 -10   13.40    3.60
   4   2  10   11.30    4.20
  -5  -2 -10   20.20    4.60
  -5  -2 -10   19.80    4.40
   5   2  10   25.20    5.50
   9  -3 -10   29.40    6.10
  -9   3  10   26.30    3.80
  -9   3  10   24.90    3.80
   8  -3 -10   17.70    4.80
   8  -3 -10   23.50    3.60
  -8   3  10   17.20    3.50
  -8   3  10   21.80    4.10
   7  -3 -10   94.39    8.70
   7  -3 -10   73.19    5.20
  -7   3  10   62.59    5.90
   6  -3 -10  283.37   14.20
  -6   3  10  265.27   11.40
   5  -3 -10   11.40    2.20
   5  -3 -10   16.40    4.50
  -5   3  10   13.50    3.40
   4  -3 -10   21.30    2.50
   4  -3 -10   24.30    5.20
   4  -3 -10   20.10    2.30
  -4   3  10   18.60    4.10
   3  -3 -10  474.25   17.90
   3  -3 -10  453.65    9.80
   3  -3 -10  438.16   12.70
  -3   3  10  440.86   16.00
   2  -3 -10  187.78    6.90
   2  -3 -10  229.98   12.10
   2  -3 -10  194.88    5.90
  -2   3  10  207.88   11.10
   1  -3 -10    1.40    3.00
   1  -3 -10    1.30    1.60
   1  -3 -10    0.30    1.70
   0  -3 -10   19.70    4.60
   0   3  10   26.20    5.30
  -1  -3 -10  290.97   13.40
  -1  -3 -10  280.67    9.10
   1   3  10  262.17   13.60
  -2  -3 -10   18.00    4.10
  -2  -3 -10   29.30    4.10
   2   3  10   33.90    6.10
  -3  -3 -10    1.70    2.60
  -3  -3 -10    2.30    2.80
   3   3  10   10.60    4.10
  -4  -3 -10  103.99    8.70
  -4  -3 -10  101.99    9.00
   4   3  10  115.59   10.40
  -9   4  10   10.00    3.80
   8  -4 -10    2.40    3.90
  -8   4  10    3.30    3.20
   7  -4 -10  134.29   10.80
  -7   4  10  148.59    9.00
   6  -4 -10   24.20    5.20
  -6   4  10   30.10    4.90
   5  -4 -10   12.30    4.20
  -5   4  10    2.80    2.80
   4  -4 -10  318.77   15.20
  -4   4  10  287.27   13.50
   3  -4 -10  197.18   11.60
  -3   4  10  168.08   12.70
   2  -4 -10  165.78   10.70
  -2   4  10  153.78    9.80
   1  -4 -10   50.69    6.90
  -1   4  10   45.00    6.80
   0  -4 -10  133.39    9.90
   0   4  10  140.39   10.00
  -1  -4 -10  198.78    8.10
  -1  -4 -10  206.98   11.70
   1   4  10  202.68   12.10
  -2  -4 -10   31.20    3.60
  -2  -4 -10   33.90    5.70
   2   4  10   27.20    5.70
  -3  -4 -10   70.99    5.80
  -3  -4 -10   66.59    7.30
   8  -5 -10   46.10    9.00
  -8   5  10   25.70    5.50
   7  -5 -10   -4.90    3.00
  -7   5  10   -1.10    2.60
   6  -5 -10  151.38   11.00
  -6   5  10  127.59    9.00
   5  -5 -10  109.39    9.40
  -5   5  10   87.69    7.60
   4  -5 -10  152.08   10.60
  -4   5  10  119.29    9.00
   3  -5 -10    1.60    3.10
  -3   5  10   -3.90    2.50
   2  -5 -10   28.70    5.60
  -2   5  10   41.10    6.50
   1  -5 -10   75.79    8.00
  -1   5  10   77.69    8.20
   0  -5 -10  204.88   12.50
   0   5  10  210.78   12.60
  -1  -5 -10    4.60    3.60
   1   5  10   -4.20    3.00
  -2  -5 -10   19.00    5.10
  -6   6  10   18.70    4.90
   5  -6 -10  256.57   14.70
  -5   6  10  226.78   12.70
   4  -6 -10    1.10    3.10
  -4   6  10   -3.80    2.90
   3  -6 -10    9.50    3.80
  -3   6  10    2.90    2.60
   2  -6 -10  120.69   10.20
  -2   6  10  124.09   10.40
   1  -6 -10  156.38   11.30
  -1   6  10  158.58   11.20
   0   6  10    5.60    5.50
   0  11 -11   65.19   10.00
   0 -11  11   90.19    7.70
  -1  11 -11   17.50    5.30
   1 -11  11   14.40    3.90
   3  10 -11  129.29    8.60
  -3 -10  11  125.79    8.10
   2  10 -11  141.99    8.20
   2  10 -11  154.78   11.20
  -2 -10  11  129.49    8.00
   1  10 -11  223.88   13.30
   1  10 -11  267.97   14.00
  -1 -10  11  223.68   10.60
   0  10 -11   55.99    7.90
   0 -10  11   70.29    6.60
  -1  10 -11   41.30    7.00
   1 -10  11   39.10    6.10
  -2  10 -11  241.78   14.30
   2 -10  11  229.68   12.10
  -3  10 -11  163.08   13.70
   3 -10  11  151.88   10.60
  -4  10 -11   41.70    8.60
   4 -10  11   47.70    7.50
   5   9 -11    4.20    3.20
   4   9 -11   21.40    5.10
   4   9 -11   19.80    7.00
   3   9 -11  169.28    9.60
   3   9 -11  177.88   11.80
   2   9 -11  116.19    9.60
   2   9 -11  139.29    8.10
  -2  -9  11  146.39    7.70
   1   9 -11    4.40    3.20
  -1  -9  11   11.00    3.20
   0   9 -11   20.90    5.20
   0   9 -11   20.70    3.00
   0  -9  11   28.40    4.90
  -1   9 -11  112.19    9.40
   1  -9  11  109.49    8.60
  -2   9 -11  156.48   11.10
   2  -9  11  150.88    9.90
  -3   9 -11   -3.60    2.80
   3  -9  11   -1.60    3.10
  -4   9 -11   16.40    5.00
   4  -9  11   22.50    5.50
  -5   9 -11   29.70   10.10
   5  -9  11   45.40    7.30
   6   8 -11   31.60    8.90
  -6  -8  11   37.20    8.40
   5   8 -11   54.09    7.20
   5   8 -11   51.09    7.30
   4   8 -11  293.57   12.80
   4   8 -11  304.47   15.10
   3   8 -11  237.58   11.00
   3   8 -11  252.87   13.80
  -3  -8  11  241.18    8.70
   2   8 -11   30.30    5.70
   2   8 -11   30.00    4.30
  -2  -8  11   39.10    4.40
   1   8 -11   34.50    5.90
  -1  -8  11   41.10    4.80
   0   8 -11   89.79    8.50
   0   8 -11   87.99    5.10
   0  -8  11   95.39    6.90
  -1   8 -11  537.55   11.80
  -1   8 -11  573.64   20.90
   1  -8  11  583.54   18.60
  -2   8 -11   33.90    6.20
   2  -8  11   41.50    6.80
  -3   8 -11   76.29    8.60
   3  -8  11   78.89    7.50
  -4   8 -11  542.95   21.10
   4  -8  11  537.45   19.90
  -5   8 -11  125.19   10.50
   5  -8  11  118.89   10.10
   7   7 -11   -0.20    3.60
   7   7 -11   -6.60    3.80
  -7  -7  11    7.60    4.50
   6   7 -11   19.00    5.50
   6   7 -11   37.20    6.10
  -6  -7  11   36.40    6.40
   5   7 -11  172.98   10.80
   5   7 -11  172.08   11.30
  -5  -7  11  186.48   11.30
   4   7 -11  132.59    9.80
   4   7 -11  127.09    8.40
  -4  -7  11  117.09    4.90
   3   7 -11   -0.70    2.40
   3   7 -11   -3.30    2.60
  -3  -7  11    1.60    1.70
   2   7 -11    1.80    2.80
   2   7 -11    3.50    2.50
  -2  -7  11    5.40    2.20
   1   7 -11  159.88   10.70
  -1  -7  11  153.48    8.20
   0   7 -11   58.29    6.90
   0   7 -11   48.40    4.20
   0  -7  11   44.40    5.40
  -1   7 -11   47.00    3.60
  -1   7 -11   49.50    7.10
   1  -7  11   41.80    5.70
  -2   7 -11   64.59    7.30
   2  -7  11   65.19    7.10
  -3   7 -11  210.28   12.30
   3  -7  11  225.38   11.90
  -4   7 -11   65.09    7.70
   4  -7  11   58.49    6.70
  -5   7 -11   53.69    8.10
   5  -7  11   55.79    6.70
  -6   7 -11  134.89   12.30
   6  -7  11  128.69   10.20
   8   6 -11   47.60    7.50
  -8  -6  11   52.99   10.90
   7   6 -11    3.60    3.80
   7   6 -11    0.20    3.80
  -7  -6  11   10.10    3.90
   6   6 -11  153.18   10.50
   6   6 -11  160.38   10.90
  -6  -6  11  167.78   10.70
   5   6 -11  263.57   13.80
  -5  -6  11  256.77   13.20
   4   6 -11  236.28   12.50
   4   6 -11  237.78   11.50
  -4  -6  11  237.28    7.10
   3   6 -11    5.40    3.60
   3   6 -11    3.00    2.60
  -3  -6  11    7.10    2.10
   2   6 -11  272.07   10.80
   2   6 -11  262.97   12.80
  -2  -6  11  278.47   14.70
   1   6 -11  316.47   11.60
   1   6 -11  316.67   14.60
  -1  -6  11  338.37   12.10
   0   6 -11  152.88    7.20
   0   6 -11  155.38   10.30
   0  -6  11  147.99    8.50
  -1   6 -11  235.78    8.20
  -1   6 -11  242.28   12.40
   1  -6  11  235.38    8.60
   1  -6  11  254.07   11.50
  -2   6 -11  259.27    7.60
  -2   6 -11  289.47   13.80
   2  -6  11  258.17    8.80
   2  -6  11  265.97   12.50
  -3   6 -11  259.67   13.40
   3  -6  11  277.57   13.20
  -4   6 -11   32.30    6.10
   4  -6  11   34.90    5.90
  -5   6 -11    1.20    3.60
   5  -6  11   17.50    5.10
  -6   6 -11  354.36   16.60
   6  -6  11  363.06   16.90
   8   5 -11   -5.50    2.50
   8   5 -11   -2.00    3.30
  -8  -5  11    5.10    3.70
   7   5 -11  110.49    9.10
   7   5 -11  105.19    8.90
  -7  -5  11  126.19    9.50
   6   5 -11   98.79    8.30
   6   5 -11   97.19    8.90
  -6  -5  11  108.19    9.10
   5   5 -11   53.69    6.80
   5   5 -11   52.29    7.00
  -5  -5  11   56.29    6.40
   4   5 -11   84.99    7.90
   4   5 -11   72.29    7.10
  -4  -5  11   82.99    4.30
   3   5 -11   53.09    8.10
   3   5 -11   60.49    6.00
  -3  -5  11   53.09    4.30
   2   5 -11  253.37   10.70
   2   5 -11  270.07   12.60
   1   5 -11    4.70    3.20
   1   5 -11    5.50    2.60
  -1  -5  11    7.80    2.60
   0   5 -11   17.80    3.30
   0   5 -11   15.60    4.00
   0  -5  11   16.90    3.60
  -1   5 -11  270.97   13.20
  -1   5 -11  263.97    9.10
   1  -5  11  273.77   12.20
  -2   5 -11  342.87   10.00
  -2   5 -11  354.16   15.60
   2  -5  11  330.07   10.30
   2  -5  11  343.07   14.20
  -3   5 -11    5.10    3.20
   3  -5  11    3.20    2.80
  -4   5 -11   10.40    3.80
  -4   5 -11   18.70    2.20
   4  -5  11   11.30    4.00
  -5   5 -11  197.88   12.20
   5  -5  11  196.38   11.90
  -6   5 -11   57.19    7.70
   6  -5  11   74.59    8.10
   9   4 -11   83.29   13.80
   9   4 -11   97.99    8.90
   8   4 -11   84.89    8.60
   8   4 -11   83.29    8.30
  -8  -4  11   88.49    7.90
   7   4 -11  190.68   11.40
   7   4 -11  185.28   11.70
  -7  -4  11  191.28   11.00
   6   4 -11   38.10    5.90
   6   4 -11   33.10    5.90
  -6  -4  11   36.60    5.50
   5   4 -11   -0.90    1.10
   5   4 -11   -0.60    2.40
  -5  -4  11    0.90    1.40
   4   4 -11  149.99    9.40
   4   4 -11  137.19    6.10
   4   4 -11  143.39    8.90
   3   4 -11  347.37   13.40
   3   4 -11  369.96   14.70
  -3  -4  11  341.37   10.90
   2   4 -11   81.59    6.60
   2   4 -11  101.69    7.90
  -2  -4  11   78.29    5.50
   1   4 -11    2.20    2.60
   1   4 -11    1.80    2.40
  -1  -4  11   -0.10    1.90
   0   4 -11  551.14   15.60
   0   4 -11  570.44   18.60
   0  -4  11  538.45   17.10
  -1   4 -11  469.35   16.80
  -1   4 -11  445.96   13.30
   1  -4  11  463.65   16.30
  -2   4 -11  116.39    8.80
  -2   4 -11  111.59    6.10
   2  -4  11  116.89    8.60
  -3   4 -11    3.70    1.80
  -3   4 -11    6.60    3.70
   3  -4  11    3.70    3.30
  -4   4 -11  258.27   13.30
  -4   4 -11  251.37    8.50
   4  -4  11  267.27   13.50
  -5   4 -11  336.67   15.40
  -5   4 -11  331.77    9.70
   5  -4  11  316.97   15.30
   5  -4  11  321.77   10.30
  -6   4 -11   41.50    6.50
   6  -4  11   41.90    7.40
   9   3 -11  194.78   12.00
   9   3 -11  212.18   13.40
  -9  -3  11  191.98   11.60
   8   3 -11  163.98   10.90
   8   3 -11  154.08   11.40
  -8  -3  11  166.98   10.30
   7   3 -11   31.20    5.40
   7   3 -11   32.40    5.80
  -7  -3  11   38.10    5.90
   6   3 -11   26.40    5.10
   6   3 -11   28.10    7.30
  -6  -3  11   31.90    6.10
   5   3 -11  186.08    6.30
   5   3 -11  176.98   10.20
   5   3 -11  181.28   10.70
  -5  -3  11  189.88    6.10
  -5  -3  11  186.18    6.30
   4   3 -11   34.50    4.10
   4   3 -11   42.20    6.00
   4   3 -11   45.60    6.00
  -4  -3  11   47.30    3.90
   3   3 -11   29.00    4.90
   3   3 -11   29.90    5.00
  -3  -3  11   23.50    3.50
   2   3 -11  117.99    7.80
   2   3 -11  113.69    8.10
  -2  -3  11  115.29    7.00
   1   3 -11   22.40    3.80
   1   3 -11   34.40    5.00
  -1  -3  11   38.80    4.60
   0   3 -11  177.78    8.70
   0   3 -11  173.68    9.70
   0  -3  11  179.48    9.60
  -1   3 -11  116.69    8.40
  -1   3 -11  122.09    7.00
   1  -3  11  129.99    8.60
  -2   3 -11  194.98   10.80
  -2   3 -11  193.98    8.60
   2  -3  11  210.28   11.10
  -3   3 -11    4.50    2.10
  -3   3 -11    3.10    3.50
   3  -3  11    7.90    3.40
  -4   3 -11  238.38   12.40
  -4   3 -11  221.78    9.70
   4  -3  11  220.18   12.40
  -5   3 -11   -3.50    2.00
  -5   3 -11    1.00    1.60
   5  -3  11   -3.70    2.50
  -6   3 -11    9.80    3.90
  -6   3 -11   10.60    2.50
   6  -3  11   11.40    3.80
   6  -3  11   12.60    3.40
   9   2 -11   97.99    9.60
   9   2 -11   94.49    8.50
  -9  -2  11  105.49    8.50
   8   2 -11  169.18   10.50
   8   2 -11  164.88   11.20
  -8  -2  11  171.98   11.90
   7   2 -11   -4.70    3.00
  -7  -2  11   -1.30    3.60
   6   2 -11  233.58   11.50
   6   2 -11  239.98   12.50
  -6  -2  11  232.28   11.10
   5   2 -11  185.78    7.10
   5   2 -11  203.38   10.10
  -5  -2  11  192.88    7.20
   4   2 -11  153.98    9.40
   4   2 -11  130.59    8.50
  -4  -2  11  146.49    6.90
   3   2 -11   23.30    4.50
   3   2 -11   18.80    4.10
  -3  -2  11   25.00    3.60
   2   2 -11  243.98   11.30
   2   2 -11  259.67   11.30
  -2  -2  11  267.87   10.70
   1   2 -11  298.17   12.20
   1   2 -11  297.37   12.10
  -1  -2  11  312.77   12.30
   0   2 -11   66.69    6.00
   0   2 -11   59.79    6.10
   0  -2  11   57.99    6.00
  -1   2 -11   18.30    4.30
  -1   2 -11   27.30    3.90
   1  -2  11   33.00    5.60
  -2   2 -11  267.17   10.60
  -2   2 -11  263.77   11.90
  -3   2 -11  100.49    6.40
  -3   2 -11   97.09    7.90
   3  -2  11   95.79    8.20
  -4   2 -11    5.30    3.30
  -4   2 -11   11.50    2.90
   4  -2  11    3.80    3.50
  -5   2 -11    3.20    3.60
  -5   2 -11   -1.30    2.10
   5  -2  11    1.90    3.00
  -6   2 -11  338.97   15.40
  -6   2 -11  321.47   12.00
   6  -2  11  314.27   12.70
   6  -2  11  337.67   19.20
   9   1 -11   15.10    5.40
   9   1 -11   17.10    4.60
  -9  -1  11   16.00    4.00
   8   1 -11   31.80    6.00
   8   1 -11   36.80    6.40
   7   1 -11   57.89    6.40
   7   1 -11   64.09    7.90
  -7  -1  11   61.39    6.10
   6   1 -11  128.99   10.00
   6   1 -11  137.99    8.50
   5   1 -11   37.70    5.10
   5   1 -11   38.30    6.00
  -5  -1  11   46.20    4.20
   4   1 -11   36.00    4.80
   4   1 -11   27.70    5.40
   3   1 -11  221.58   11.50
   3   1 -11  224.98   10.10
  -3  -1  11  256.07   10.50
   2   1 -11  226.08    9.90
   2   1 -11  239.08   11.50
  -2  -1  11  220.08   10.10
   1   1 -11   34.00    5.00
   1   1 -11   31.00    4.50
  -1  -1  11   42.40    5.70
   0   1 -11  133.49    7.90
   0   1 -11  134.79    8.40
   0  -1  11  143.59    9.10
  -1   1 -11  366.86   13.50
  -1   1 -11  350.76   13.40
   1  -1  11  357.56   14.70
  -2   1 -11   -5.10    2.20
  -2   1 -11    1.60    2.10
   2  -1  11    3.20    3.00
  -3   1 -11   53.49    6.30
  -3   1 -11   64.29    5.70
   3  -1  11   55.19    6.70
  -4   1 -11   97.59    7.00
   4  -1  11  105.49    8.90
  -5   1 -11   25.50    4.20
  -5   1 -11   22.60    5.10
   5  -1  11   33.80    5.90
  -6   1 -11  269.97   11.40
  -6   1 -11  265.07   13.50
   6  -1  11  232.68   11.70
   6  -1  11  257.37   17.40
   9   0 -11    3.90    4.40
   9   0 -11   -4.10    2.50
  -9   0  11    1.50    2.60
   8   0 -11   22.10    5.40
   8   0 -11   15.60    4.00
  -8   0  11   25.40    4.50
   7   0 -11  358.76   13.60
   7   0 -11  354.26   16.10
  -7   0  11  356.76   13.10
   6   0 -11   31.40    4.60
   6   0 -11   26.50    5.30
  -6   0  11   26.70    3.60
   5   0 -11   15.50    4.90
   5   0 -11   14.70    3.30
  -5   0  11   11.60    2.70
   4   0 -11  343.47   12.10
  -4   0  11  352.26   12.30
   3   0 -11  222.98    9.50
   3   0 -11  238.68   12.00
  -3   0  11  251.97   10.80
   2   0 -11  131.29    8.90
   2   0 -11  114.09    7.10
  -2   0  11  124.19    8.10
   1   0 -11   -1.90    2.60
   1   0 -11   -2.50    1.90
  -1   0  11   -0.30    2.40
   0   0 -11  302.97   12.80
   0   0 -11  284.97   11.00
   0   0  11  281.17   13.00
  -1   0 -11  308.47   13.00
  -1   0 -11  318.17   12.10
   1   0  11  355.66   15.50
  -2   0 -11  139.49    8.70
  -2   0 -11  152.08    8.60
   2   0  11  151.08   10.20
  -3   0 -11   92.09    7.00
  -3   0 -11   89.69    7.60
   3   0  11  107.19    8.80
  -4   0 -11  155.58    9.00
  -4   0 -11  164.88    9.90
   4   0  11  169.28   11.50
  -5   0 -11  268.67   12.50
  -5   0 -11  260.27   12.60
   5   0  11  270.17   15.20
   9  -1 -11  181.38   10.20
  -9   1  11  220.28   10.40
   8  -1 -11   36.60    6.90
   8  -1 -11   40.10    5.30
  -8   1  11   36.10    5.80
  -8   1  11   35.20    4.70
   7  -1 -11    8.20    2.90
   7  -1 -11   -2.30    2.70
  -7   1  11   -2.80    3.00
   6  -1 -11   47.30    7.00
   6  -1 -11   57.19    5.20
  -6   1  11   57.29    5.30
   5  -1 -11  136.39    9.80
   5  -1 -11  123.99    7.00
  -5   1  11  128.29    7.40
   4  -1 -11  190.98   11.50
   4  -1 -11  161.48   10.90
  -4   1  11  162.28    8.90
   3  -1 -11   54.09    4.90
   3  -1 -11   64.49    7.10
  -3   1  11   60.69    6.10
   2  -1 -11   98.49    6.10
  -2   1  11  107.59    7.90
   1  -1 -11   80.49    8.70
   1  -1 -11   74.19    6.50
  -1   1  11   66.29    6.50
   0  -1 -11  192.38   12.40
   0  -1 -11  183.48    8.40
   0   1  11  197.88   11.50
   1   1  11    1.00    3.00
  -2  -1 -11   -1.50    2.20
  -2  -1 -11    0.50    2.70
   2   1  11   -2.60    2.70
  -3  -1 -11  199.78   10.60
  -3  -1 -11  196.78    9.80
   3   1  11  192.58   12.50
  -4  -1 -11  140.29    9.30
  -4  -1 -11  162.48    9.30
   4   1  11  154.88   11.10
   8  -2 -11   50.09    7.60
   8  -2 -11   38.20    5.00
  -8   2  11   56.99    5.20
   7  -2 -11   20.90    5.40
   7  -2 -11   18.20    3.50
  -7   2  11   10.40    3.10
  -6   2  11    0.90    2.40
   5  -2 -11  291.27    9.70
   5  -2 -11  289.37   14.80
  -5   2  11  299.77   12.10
   4  -2 -11   89.49    5.30
   4  -2 -11   90.69    8.80
  -4   2  11   98.69    7.40
   3  -2 -11    0.90    3.50
   3  -2 -11    1.10    1.90
  -3   2  11    0.40    2.30
   2  -2 -11  188.68    7.40
   2  -2 -11  209.58   11.80
  -2   2  11  193.98   11.00
   1  -2 -11  129.79    9.10
   1  -2 -11  125.99    6.30
  -1   2  11  131.59    9.20
   0  -2 -11   15.00    4.10
   0  -2 -11   17.80    3.20
   0   2  11   24.90    4.80
  -1  -2 -11   -2.20    2.30
  -1  -2 -11   -3.30    2.20
   1   2  11   -4.10    2.80
  -2  -2 -11  218.88    9.60
  -2  -2 -11  215.98   11.80
   2   2  11  223.38   12.90
  -3  -2 -11   70.19    6.40
  -3  -2 -11   62.99    7.00
   3   2  11   55.59    8.10
  -4  -2 -11  139.89    8.90
  -4  -2 -11  153.88   10.20
   4   2  11  133.89   13.50
  -8   3  11    9.10    3.70
   7  -3 -11   71.79    8.20
  -7   3  11   67.39    6.50
   6  -3 -11   92.39    8.80
  -6   3  11  114.39    7.90
   5  -3 -11   16.70    2.80
   5  -3 -11   16.20    4.80
  -5   3  11   19.80    4.10
   4  -3 -11   20.60    2.70
   4  -3 -11   27.40    5.50
  -4   3  11   18.80    4.30
   3  -3 -11  201.08   12.30
   3  -3 -11  194.48    8.10
  -3   3  11  202.78   11.60
   2  -3 -11   32.20    5.90
   2  -3 -11   22.40    2.50
  -2   3  11   25.20    5.20
   1  -3 -11   23.60    5.40
   1  -3 -11   19.50    2.40
  -1   3  11   22.20    5.00
   0  -3 -11   40.90    6.30
   0   3  11   58.09    7.00
  -1  -3 -11  122.19    9.50
  -1  -3 -11  127.89    6.50
   1   3  11  121.89   10.30
  -2  -3 -11   88.99    6.20
  -2  -3 -11   86.59    8.10
   2   3  11  111.59    9.60
  -3  -3 -11    7.30    3.50
  -3  -3 -11    3.40    3.10
   3   3  11   12.00    5.60
   7  -4 -11   13.90    8.00
  -7   4  11   14.70    7.20
   6  -4 -11  108.89   10.00
  -6   4  11  110.89    8.80
   5  -4 -11   -4.20    2.70
   4  -4 -11  133.09   10.30
  -4   4  11  131.79    9.40
   3  -4 -11   50.09    7.40
  -3   4  11   49.10    6.90
   2  -4 -11  116.49    9.40
  -2   4  11  119.19    9.10
   1  -4 -11   11.80    4.10
  -1   4  11    4.90    3.80
   0  -4 -11   60.09    6.90
   0   4  11   53.89    7.50
  -1  -4 -11  193.58   11.80
   1   4  11  188.08   12.70
  -5   5  11   81.49    8.40
   4  -5 -11  266.67   22.40
  -4   5  11  189.28   11.80
   3  -5 -11    2.30    3.10
  -3   5  11    1.00    3.40
   2  -5 -11   10.50    4.80
  -2   5  11    7.00    3.60
   1  -5 -11   54.99   11.50
  -1   5  11   56.39    8.10
   0  10 -12   49.70    7.70
   0 -10  12   67.39    6.90
   3   9 -12   -0.20    6.10
   3   9 -12    3.20    3.00
   2   9 -12  141.59    8.60
   2   9 -12  160.98   11.40
  -2  -9  12  149.69    8.30
   1   9 -12   52.89    7.70
   1   9 -12   56.69    5.30
  -1  -9  12   47.30    5.70
   0   9 -12   41.20    6.70
   0  -9  12   50.79    6.30
  -1   9 -12  224.98   13.50
   1  -9  12  211.58   11.60
  -2   9 -12  192.78   13.20
   2  -9  12  200.78   11.60
   3  -9  12    7.90    3.60
   5   8 -12    7.40    4.00
   4   8 -12  137.19   10.70
   3   8 -12  189.38   10.30
   3   8 -12  185.38   12.00
   2   8 -12   11.20    4.00
   2   8 -12   12.70    3.50
   1   8 -12   18.00    4.80
   1   8 -12   21.30    3.40
  -1  -8  12   22.10    4.10
   0   8 -12  211.58    8.10
   0   8 -12  232.38   13.20
   0  -8  12  226.98   10.90
  -1   8 -12  632.54   22.60
   1  -8  12  655.93   23.60
  -2   8 -12  198.78   12.50
   2  -8  12  214.38   11.80
  -3   8 -12   -5.80    2.80
   3  -8  12   11.40    3.70
   4  -8  12  157.08   10.70
   6   7 -12    2.60    3.60
   6   7 -12   -0.80    3.60
   5   7 -12  212.58   12.70
   5   7 -12  215.58   12.00
   4   7 -12   37.30    6.50
   4   7 -12   29.00    6.10
   3   7 -12    4.10    3.00
   3   7 -12    3.40    3.30
  -3  -7  12    4.50    2.50
   2   7 -12   -2.70    2.90
   2   7 -12    2.20    2.50
  -2  -7  12   -1.10    2.30
   1   7 -12   75.79    5.90
   1   7 -12   63.59    7.80
  -1  -7  12   69.09    6.30
   0   7 -12  177.88   11.40
   0   7 -12  170.98    7.50
   0  -7  12  181.88    9.90
  -1   7 -12  131.69    9.90
   1  -7  12  121.19   12.30
  -2   7 -12   -4.30    3.20
   2  -7  12   -3.30    2.60
  -3   7 -12   41.60    6.90
   3  -7  12   40.60    6.00
  -4   7 -12  140.69   10.50
   4  -7  12  122.09    9.60
   6   6 -12   36.40    6.50
   6   6 -12   31.10    5.90
  -6  -6  12   39.20    6.00
   5   6 -12  209.58   11.60
   5   6 -12  176.18   11.60
   4   6 -12  281.77   14.20
   4   6 -12  260.27   12.40
   3   6 -12    1.80    2.80
   3   6 -12   -0.90    3.10
  -3  -6  12   -1.30    1.80
   2   6 -12   96.39    8.80
   2   6 -12   84.99    6.90
  -2  -6  12   91.69    6.30
   1   6 -12  414.06   13.50
   1   6 -12  406.96   16.80
  -1  -6  12  423.26   14.40
   0   6 -12  163.58   10.60
   0  -6  12  171.18    9.50
  -1   6 -12   26.50    3.20
  -1   6 -12   42.90    6.40
   1  -6  12   38.10    5.30
  -2   6 -12   29.50    5.80
   2  -6  12   34.30    5.70
  -3   6 -12  202.98   12.30
   3  -6  12  191.48   11.30
  -4   6 -12   86.49    8.60
   4  -6  12   81.19    7.90
  -5   6 -12   -5.40    3.40
   5  -6  12   -2.20    2.60
   7   5 -12   16.30    4.90
   7   5 -12   24.80    5.60
  -7  -5  12   17.60    4.40
   6   5 -12   98.89    8.90
   6   5 -12   90.99    8.50
   5   5 -12   26.00    5.00
   5   5 -12   22.30    5.30
   4   5 -12    4.70    3.10
   4   5 -12    4.40    3.40
  -4  -5  12    2.90    2.10
   3   5 -12  243.38   12.70
   3   5 -12  233.38   11.30
  -3  -5  12  216.38   10.10
   2   5 -12  230.38   12.20
   2   5 -12  232.68   10.90
  -2  -5  12  239.98    9.90
   1   5 -12    0.40    2.00
   1   5 -12   -0.10    3.20
  -1  -5  12   -1.00    2.50
   0   5 -12   -4.10    2.80
   0   5 -12   -0.30    2.10
   0  -5  12    0.10    2.80
  -1   5 -12  294.87   14.10
   1  -5  12  289.77   13.10
  -2   5 -12   66.99    4.60
  -2   5 -12   83.99    8.10
   2  -5  12   74.69    7.50
  -3   5 -12   77.49    4.70
  -3   5 -12   98.29    9.20
   3  -5  12   95.79    8.60
  -4   5 -12   14.30    4.60
   4  -5  12   13.40    4.50
  -5   5 -12  148.39   11.20
   5  -5  12  118.49   10.10
   7   4 -12  177.68   11.90
   7   4 -12  177.58   11.70
  -7  -4  12  164.18   10.60
   6   4 -12   46.60    6.70
   6   4 -12   44.40    6.50
   5   4 -12    1.00    3.20
   5   4 -12    2.40    3.30
  -5  -4  12   -0.40    1.40
   4   4 -12   57.79    6.80
   4   4 -12   47.00    6.30
  -4  -4  12   62.09    4.60
   3   4 -12  384.96   15.00
  -3  -4  12  402.56   12.90
   2   4 -12  357.66   17.30
   2   4 -12  341.27   13.40
  -2  -4  12  366.26   12.70
   1   4 -12    2.40    3.40
   1   4 -12    1.10    2.60
  -1  -4  12    3.50    2.60
   0   4 -12  355.36   12.50
   0  -4  12  365.36   14.30
  -1   4 -12  341.17   11.70
  -1   4 -12  345.37   14.90
   1  -4  12  341.87   14.70
  -2   4 -12  235.38    9.20
  -2   4 -12  227.58   12.20
   2  -4  12  258.57   12.90
  -3   4 -12    9.20    4.00
   3  -4  12   13.90    3.90
  -4   4 -12   45.10    6.60
  -4   4 -12   59.19    4.80
   4  -4  12   44.80    6.80
  -5   4 -12  480.05   19.40
   5  -4  12  478.45   19.90
   8   3 -12  113.79    9.00
   8   3 -12  106.89    9.90
  -8  -3  12  137.59    9.90
   7   3 -12   18.10    4.40
   7   3 -12   24.60    5.40
  -7  -3  12   17.80    4.50
   6   3 -12   11.60    4.00
   6   3 -12   15.60    4.30
   5   3 -12  161.78   15.20
   5   3 -12  140.49    9.90
   4   3 -12  145.39    9.40
  -4  -3  12  137.39    6.90
   3   3 -12   33.50    5.40
   3   3 -12   32.80    5.40
  -3  -3  12   22.10    3.70
   2   3 -12   -3.50    2.60
   2   3 -12   -2.80    2.40
  -2  -3  12   -1.60    2.00
   1   3 -12   99.89    8.10
   1   3 -12   92.49    7.30
  -1  -3  12  115.59    7.90
   0   3 -12  590.04   17.50
   0   3 -12  600.94   19.50
   0  -3  12  635.34   19.50
  -1   3 -12   32.50    4.40
  -1   3 -12   27.00    5.10
  -2   3 -12   10.10    2.90
  -2   3 -12    4.80    3.60
   2  -3  12   11.40    3.60
  -3   3 -12  110.09   10.50
  -3   3 -12  129.49    9.70
   3  -3  12  127.19    9.60
  -4   3 -12  121.89    9.80
  -4   3 -12  121.39    6.80
   4  -3  12  127.59    9.80
  -5   3 -12   28.70    5.90
  -5   3 -12   35.40    4.30
   5  -3  12   34.50    9.20
   8   2 -12  161.08   10.60
   8   2 -12  164.98   11.60
  -8  -2  12  166.18   10.10
   7   2 -12   24.90    5.40
   7   2 -12   36.20    5.20
  -7  -2  12   33.20    5.40
   6   2 -12    9.10    3.80
  -6  -2  12   17.60    2.70
   5   2 -12  375.56   16.00
   5   2 -12  366.06   14.60
  -5  -2  12  362.56   11.00
   4   2 -12  127.69    8.70
   4   2 -12  154.58   10.30
  -4  -2  12  158.48    7.70
   3   2 -12   -1.70    2.70
   3   2 -12    1.50    3.20
  -3  -2  12    4.40    2.50
   2   2 -12   18.80    4.30
   2   2 -12   17.60    4.10
  -2  -2  12   21.60    4.10
   1   2 -12  513.15   17.20
   1   2 -12  514.15   17.10
  -1  -2  12  537.45   17.60
   0   2 -12  154.28    9.40
   0   2 -12  156.68    8.90
   0  -2  12  138.09    9.20
  -1   2 -12   46.90    5.20
  -1   2 -12   38.00    5.60
   1  -2  12   40.90    5.70
  -2   2 -12  117.19    7.70
  -2   2 -12  112.89    8.90
   2  -2  12  127.09    9.20
  -3   2 -12  131.49    7.60
  -3   2 -12  131.89    9.40
   3  -2  12  139.59   10.10
  -4   2 -12  139.89   10.00
  -4   2 -12  132.89    8.40
   4  -2  12  129.79   10.50
   8   1 -12   -4.90    2.40
   8   1 -12   -5.10    3.50
  -8  -1  12    2.40    3.20
   7   1 -12   12.00    4.50
   6   1 -12   67.49    6.80
   6   1 -12   71.99    7.70
  -6  -1  12   69.79    5.10
   5   1 -12   47.70    6.90
   5   1 -12   57.39    6.40
  -5  -1  12   67.69    6.20
   4   1 -12    0.10    3.30
   4   1 -12   -1.40    2.30
  -4  -1  12   -0.10    2.30
   3   1 -12  194.08   11.60
   3   1 -12  173.98    9.20
  -3  -1  12  180.88    9.40
   2   1 -12  137.99    8.30
   2   1 -12  135.09   10.60
  -2  -1  12  143.49    8.70
   1   1 -12  190.08   10.60
   1   1 -12  203.78   10.10
  -1  -1  12  219.88   11.00
   0   1 -12   42.00    5.60
   0   1 -12   41.70    5.70
   0  -1  12   47.10    9.70
  -1   1 -12   61.09    6.20
  -1   1 -12   62.79    6.80
   1  -1  12   67.89    7.30
  -2   1 -12   46.10    5.50
  -2   1 -12   37.70    5.40
   2  -1  12   42.60    6.40
  -3   1 -12  120.09   10.40
  -3   1 -12  112.79    7.60
   3  -1  12  107.29    9.10
  -4   1 -12   13.90    3.30
  -4   1 -12   11.00    3.80
   4  -1  12    9.60    4.40
  -8   0  12   10.20    3.80
   7   0 -12   28.80    4.60
   7   0 -12   29.60    6.20
   6   0 -12  174.78    9.50
   6   0 -12  173.18   11.70
  -6   0  12  185.58    8.50
   5   0 -12    1.10    3.50
   5   0 -12   -2.60    2.40
  -5   0  12    0.30    2.50
   4   0 -12   91.19    6.70
   4   0 -12   89.99    8.20
  -4   0  12  100.69    7.20
   3   0 -12  207.38    9.60
   3   0 -12  245.28   12.90
  -3   0  12  217.68   10.70
   2   0 -12  181.58    9.00
   2   0 -12  200.48   11.10
  -2   0  12  188.98   10.40
   1   0 -12    0.30    2.40
   1   0 -12    2.70    2.70
   0   0 -12   -4.10    2.10
   0   0 -12    1.60    3.00
   0   0  12    0.40    3.00
  -1   0 -12  407.06   18.20
  -1   0 -12  404.16   14.30
   1   0  12  401.86   17.00
  -2   0 -12   96.39    7.80
  -2   0 -12  112.09    8.20
   2   0  12  115.69    9.30
  -3   0 -12   16.50    4.30
  -3   0 -12   17.90    4.00
   3   0  12   20.30    5.10
   7  -1 -12   17.80    5.00
   7  -1 -12    7.80    3.60
  -7   1  12   15.40    3.30
   6  -1 -12    6.50    4.20
   6  -1 -12    6.40    3.10
  -6   1  12   11.70    3.40
   5  -1 -12  130.19    7.60
   5  -1 -12  138.09   10.80
  -5   1  12  144.19    8.60
   4  -1 -12  266.17   10.10
   4  -1 -12  277.47   14.10
  -4   1  12  273.27   12.00
   3  -1 -12   40.90    6.70
   3  -1 -12   51.59    5.30
  -3   1  12   46.90    6.10
   2  -1 -12   -3.90    2.20
   2  -1 -12   -2.30    2.60
  -2   1  12    2.00    3.30
   1  -1 -12  101.49    8.40
   1  -1 -12   80.69    6.10
  -1   1  12   94.89    8.10
   0  -1 -12  141.99    8.00
   0  -1 -12  152.48    9.80
   0   1  12  157.58   10.60
  -1  -1 -12   30.60    4.60
  -1  -1 -12   41.60    5.90
   1   1  12   39.30    6.70
  -2  -1 -12    8.90    3.70
  -2  -1 -12   15.10    4.30
   2   1  12    9.00    4.50
  -3  -1 -12  138.79    8.80
  -3  -1 -12  132.29    9.10
  -7   2  12    8.20    3.90
   6  -2 -12   11.90    4.10
  -6   2  12    3.90    3.30
   5  -2 -12  288.17   14.90
   5  -2 -12  282.27    9.80
  -5   2  12  289.17   12.60
   4  -2 -12  114.69    9.70
   4  -2 -12   99.69    5.90
  -4   2  12   98.29   11.20
   3  -2 -12   55.29    7.40
   3  -2 -12   48.00    4.70
  -3   2  12   69.09    7.00
   2  -2 -12   85.09    8.10
   2  -2 -12   72.79    5.40
  -2   2  12   66.99    7.20
   1  -2 -12  130.59    9.90
   1  -2 -12  106.69    6.30
  -1   2  12  128.69    9.80
   0  -2 -12  157.88   10.50
   0   2  12  168.08   11.30
  -1  -2 -12   -6.00    2.30
  -1  -2 -12   -0.60    3.00
   1   2  12    0.20    3.20
  -2  -2 -12   20.70    4.20
   2   2  12   42.00   10.50
   6  -3 -12   59.89    9.60
   5  -3 -12  169.78   12.00
  -5   3  12  146.89    9.60
   4  -3 -12   -0.40    2.90
  -4   3  12   -5.60    2.70
   3  -3 -12   69.99    8.10
  -3   3  12   63.49    7.60
   2  -3 -12   38.00    6.50
  -2   3  12   34.10    5.90
   1  -3 -12  160.18   11.20
  -1   3  12  159.18   10.80
   0  -3 -12   12.70    4.50
   0   3  12   16.70    4.90
   2   8 -13   55.29   12.00
   2   8 -13   64.69    6.30
  -2  -8  13   54.59    6.30
   1   8 -13   21.50    3.90
   1   8 -13   33.00    6.40
  -1  -8  13   18.40    4.10
   0   8 -13  101.19   10.10
   0  -8  13   95.59    8.30
  -1   8 -13  186.18   18.30
   1  -8  13  174.68   10.60
   4   7 -13   75.69    7.60
   4   7 -13   72.69    9.20
   3   7 -13   59.59    6.70
   3   7 -13   59.79    8.10
  -3  -7  13   63.09    5.60
   2   7 -13   -3.90    2.40
   2   7 -13   -0.60    2.80
  -2  -7  13   -0.20    2.60
   1   7 -13   26.70    4.10
   1   7 -13   37.90    6.30
  -1  -7  13   35.70    5.10
   0   7 -13  158.58    9.10
   0   7 -13  153.38   11.10
  -1   7 -13   47.70    7.20
   1  -7  13   45.10    6.20
  -2   7 -13   25.50    5.80
   2  -7  13   24.10    6.00
   5   6 -13   29.70    5.60
   5   6 -13   33.10    6.00
   4   6 -13  186.18   11.00
   4   6 -13  168.88   11.50
   3   6 -13  107.39    8.30
   3   6 -13  125.09   10.10
  -3  -6  13  108.09    6.80
   2   6 -13   17.40    4.00
   2   6 -13   29.30    5.70
  -2  -6  13   29.20    4.40
   1   6 -13  367.36   16.50
   1   6 -13  352.86   13.00
  -1  -6  13  386.96   14.10
   0   6 -13  114.19    6.90
   0   6 -13  118.39   10.00
  -1   6 -13   58.39    7.90
   1  -6  13   63.99    6.70
  -2   6 -13   70.89    8.20
   2  -6  13   70.39    7.70
  -3   6 -13   62.59    8.20
   3  -6  13   69.59    7.50
   6   5 -13   49.70    7.60
   5   5 -13   45.50    6.60
   5   5 -13   53.79    7.30
   4   5 -13    6.00    3.60
   4   5 -13    3.00    3.40
  -4  -5  13    7.50    2.80
   3   5 -13   17.60    4.50
   3   5 -13   15.60    4.30
  -3  -5  13   21.90    3.50
   2   5 -13  133.69    9.70
   2   5 -13  138.29    8.80
  -2  -5  13  132.69    8.10
   1   5 -13  113.19    8.90
   1   5 -13   98.59    7.30
  -1  -5  13  110.29    8.00
   0   5 -13   -5.40    2.70
   0   5 -13   -4.70    2.10
  -1   5 -13   -2.30    2.50
  -1   5 -13    0.40    2.10
   1  -5  13    0.30    2.90
  -2   5 -13  109.39    8.00
  -2   5 -13  103.29    9.50
   2  -5  13   98.39    8.70
  -3   5 -13  121.59    9.90
   3  -5  13  126.39   10.00
   6   4 -13   78.59    8.20
   6   4 -13   65.09    7.90
   5   4 -13   15.80    4.80
   5   4 -13   11.10    4.20
   4   4 -13   36.90    6.30
   4   4 -13   27.90    5.40
   3   4 -13   45.30    6.40
  -3  -4  13   41.80    4.90
   2   4 -13  303.77   14.30
   2   4 -13  327.07   13.50
  -2  -4  13  324.67   12.60
   1   4 -13    5.10    3.60
   1   4 -13    1.30    2.90
  -1  -4  13    5.60    3.10
   0   4 -13   20.70    5.20
   0   4 -13   19.00    3.90
   0  -4  13   19.90    5.20
  -1   4 -13  110.49    7.30
  -1   4 -13  128.39   10.00
   1  -4  13  139.49    9.70
  -2   4 -13  122.29   10.10
  -2   4 -13  131.19    7.30
   2  -4  13  146.39   10.50
  -3   4 -13   56.49    5.30
  -3   4 -13   35.20    6.20
   3  -4  13   54.19    7.80
   6   3 -13   11.20    4.30
   6   3 -13    5.20    3.80
   5   3 -13   51.59    7.00
   5   3 -13   64.09    7.20
   4   3 -13  167.48   10.20
   4   3 -13  153.58   10.40
  -4  -3  13  160.98    7.90
   3   3 -13   23.20    4.90
   3   3 -13   23.50    5.30
  -3  -3  13   25.70    4.20
   2   3 -13   -3.60    3.30
   2   3 -13    0.10    3.00
  -2  -3  13   -0.80    2.60
   1   3 -13   21.50    4.30
   1   3 -13   27.30    5.30
  -1  -3  13   29.90    5.10
   0   3 -13  120.99    9.20
   0   3 -13  134.99    8.40
   0  -3  13  143.99    9.60
  -1   3 -13    9.00    3.90
  -1   3 -13    2.10    2.70
   1  -3  13    7.20    3.80
  -2   3 -13   32.00    6.00
  -2   3 -13   17.50    4.50
   2  -3  13   23.30    5.10
  -3   3 -13   46.30    5.30
  -3   3 -13   37.60    6.10
   3  -3  13   54.99    7.20
   6   2 -13   -0.30    3.10
   6   2 -13    4.90    4.20
   5   2 -13  224.78   12.80
   5   2 -13  238.08   12.10
  -5  -2  13  241.68   12.90
   4   2 -13  109.89    9.20
   4   2 -13  106.39    9.90
  -4  -2  13  113.69    7.30
   3   2 -13   96.49    8.10
   3   2 -13   83.09    7.90
  -3  -2  13   96.09    7.10
   2   2 -13   92.19    8.10
   2   2 -13   82.69    7.50
  -2  -2  13   86.69    7.20
   1   2 -13   66.59    7.20
   0   2 -13  142.79    9.20
   0  -2  13  157.18   10.20
  -1   2 -13   10.20    3.30
  -1   2 -13   11.80    4.20
   1  -2  13    9.30    4.00
  -2   2 -13   38.50    5.90
  -2   2 -13   33.20    4.70
   2  -2  13   40.60    6.40
   6   1 -13   63.99    7.80
   5   1 -13  101.89    9.60
   5   1 -13  105.09    8.30
  -5  -1  13  103.79    7.00
   4   1 -13   35.50    5.10
   4   1 -13   31.80    5.80
  -4  -1  13   27.10    4.30
   3   1 -13   23.30    5.20
   3   1 -13   24.10    4.60
  -3  -1  13   23.70    4.60
   2   1 -13  115.29    8.70
   2   1 -13  106.29    8.20
  -2  -1  13  108.09    9.80
   1   1 -13  117.89    8.40
   1   1 -13   99.09    8.40
  -1  -1  13  118.99    8.90
   0   1 -13    7.70    3.40
   0   1 -13    1.20    2.90
   0  -1  13    1.30    3.70
  -1   1 -13    8.60    3.30
  -1   1 -13   12.70    3.80
   1  -1  13   13.90    4.60
  -2   1 -13  225.58   12.10
  -2   1 -13  235.38   11.50
   2  -1  13  221.98   13.00
   6   0 -13  234.28   13.80
   6   0 -13  210.48   10.60
  -6   0  13  222.48    9.90
   5   0 -13   10.40    4.50
   5   0 -13    7.40    3.20
  -5   0  13    9.00    3.70
   4   0 -13   -4.60    3.30
   4   0 -13   -5.80    3.00
  -4   0  13   -4.90    2.70
   3   0 -13   99.09    7.50
   3   0 -13  110.09    9.60
  -3   0  13  101.09    9.30
   2   0 -13   52.89    6.10
   2   0 -13   71.69    7.80
  -2   0  13   51.29    6.70
   1   0 -13   17.30    4.50
   1   0 -13   12.20    4.80
  -1   0  13   17.10    4.50
   0   0 -13   -1.50    2.50
   0   0 -13   -2.00    3.10
   0   0  13   -5.30    2.80
  -1   0 -13  197.38   10.60
  -1   0 -13  219.68   11.80
   1   0  13  232.08   13.30
   5  -1 -13    1.60    3.10
   5  -1 -13    7.80    4.90
  -5   1  13    1.30    3.20
   4  -1 -13  168.28    8.70
   4  -1 -13  178.88   12.00
  -4   1  13  185.98   12.90
   3  -1 -13   -0.80    3.30
   3  -1 -13   -2.70    2.80
  -3   1  13    1.30    3.10
   2  -1 -13   21.50    4.90
   2  -1 -13   11.30    3.60
  -2   1  13   15.30    4.40
   1  -1 -13  117.69    9.10
   1  -1 -13   99.09    7.10
  -1   1  13  102.79    9.10
   0  -1 -13    8.80    4.00
   0  -1 -13   18.80    4.60
   0   1  13   15.00    5.40
   2   5 -14  107.29    9.70
  -2  -5  14  119.19    8.20
   1   5 -14  153.48    9.10
   1   5 -14  168.18   11.50
  -1  -5  14  169.08   10.50
   3   4 -14  105.19    9.50
   3   4 -14  103.69    9.00
  -3  -4  14   97.59    8.00
   2   4 -14  202.08   12.30
   2   4 -14  211.28   11.50
  -2  -4  14  210.88   10.60
   1   4 -14   92.49    9.10
  -1  -4  14   93.99    8.20
   0   4 -14   -0.70    3.00
   0  -4  14    2.30    3.30
   3   3 -14   64.59    7.50
   3   3 -14   73.99    7.80
  -3  -3  14   66.59    6.60
   2   3 -14   30.50    5.80
   2   3 -14   32.90    5.80
  -2  -3  14   39.60    9.80
   1   3 -14   -2.30    3.10
   1   3 -14   -2.60    2.60
  -1  -3  14   -6.80    2.50
   3   2 -14   76.59    8.40
   3   2 -14   77.89    8.20
  -3  -2  14   97.29    7.50
   2   2 -14    0.10    3.50
  -2  -2  14   -2.70    3.00
   1   2 -14   -4.90    3.00
   0   0   0    0.00    0.00

_computing_structure_solution     'SHELXT 2014/5 (Sheldrick, 2014)'
;
_shelx_hkl_checksum              51139
loop_
_space_group_symop_operation_xyz
'x, y, z'
'-x, -y, -z'
loop_
_atom_site_label
_atom_site_type_symbol
_atom_site_fract_x
_atom_site_fract_y
_atom_site_fract_z
_atom_site_U_iso_or_equiv
_atom_site_adp_type
_atom_site_occupancy
_atom_site_site_symmetry_order
_atom_site_calc_flag
_atom_site_refinement_flags_posn
_atom_site_refinement_flags_adp
_atom_site_refinement_flags_occupancy
_atom_site_disorder_assembly
_atom_site_disorder_group
Cd1 Cd 0.12662(3) 0.62257(3) -0.05242(3) 0.02335(13) Uani 1 1 d . . . . .
O1 O 0.1131(4) 0.8313(4) -0.0590(4) 0.0454(9) Uani 1 1 d . . . . .
C1 C 0.9625(5) 0.4110(5) 0.6530(5) 0.0384(11) Uani 1 1 d . . . . .
H1 H 1.005213 0.339959 0.655968 0.046 Uiso 1 1 calc R U . . .
N1 N 0.9946(4) 0.5355(4) 0.7435(4) 0.0327(9) Uani 1 1 d . . . . .
S1 S 0.54862(15) 0.80034(17) 0.74757(12) 0.0501(4) Uani 1 1 d . . . . .
S2 S 0.13370(11) 1.10704(11) -0.06646(12) 0.0314(3) Uani 1 1 d . . . . .
O2 O 0.3063(4) 0.7977(4) -0.1150(5) 0.0568(12) Uani 1 1 d . . . . .
C2 C 0.9106(5) 0.6053(5) 0.7049(5) 0.0339(11) Uani 1 1 d . . . . .
N2 N 0.8259(4) 0.5307(4) 0.5925(4) 0.0305(8) Uani 1 1 d . . . . .
O4 O 0.2716(3) 1.4701(3) -0.0881(3) 0.0336(7) Uani 1 1 d . . . . .
C4 C 0.7217(4) 0.5740(5) 0.5233(4) 0.0301(10) Uani 1 1 d . . . . .
N4 N 0.2522(4) 0.6977(4) 0.1549(4) 0.0320(9) Uani 1 1 d . . . . .
N3 N 0.4138(4) 0.7078(4) 0.3147(4) 0.0310(8) Uani 1 1 d . . . . .
O3 O 0.0792(3) 1.3860(3) -0.0377(4) 0.0359(8) Uani 1 1 d . . . . .
C3 C 0.8593(5) 0.4067(5) 0.5584(5) 0.0382(11) Uani 1 1 d . . . . .
H3 H 0.819243 0.334166 0.485248 0.046 Uiso 1 1 calc R U . . .
C5 C 0.6472(5) 0.6620(5) 0.5919(4) 0.0307(10) Uani 1 1 d . . . . .
N5 N 0.6597(4) 0.7089(5) 0.7210(4) 0.0403(10) Uani 1 1 d . . . . .
C6 C 0.6907(5) 0.5316(5) 0.3912(4) 0.0338(11) Uani 1 1 d . . . . .
H6 H 0.737341 0.472015 0.345133 0.041 Uiso 1 1 calc R U . . .
N6 N 0.4806(4) 0.7893(5) 0.6019(4) 0.0422(11) Uani 1 1 d . . . . .
C9 C 0.5166(4) 0.6639(5) 0.3853(4) 0.0306(10) Uani 1 1 d . . . . .
C8 C 0.5450(5) 0.7081(5) 0.5230(5) 0.0324(10) Uani 1 1 d . . . . .
C7 C 0.5882(5) 0.5772(5) 0.3232(4) 0.0334(11) Uani 1 1 d . . . . .
H7 H 0.569586 0.546690 0.233188 0.040 Uiso 1 1 calc R U . . .
C10 C 0.3885(6) 0.8349(6) 0.3346(6) 0.0499(15) Uani 1 1 d . . . . .
H10 H 0.431254 0.911571 0.402847 0.060 Uiso 1 1 calc R U . . .
C11 C 0.3287(5) 0.6278(5) 0.2041(4) 0.0306(10) Uani 1 1 d . . . . .
C12 C 0.2895(6) 0.8269(5) 0.2361(5) 0.0460(13) Uani 1 1 d . . . . .
H12 H 0.252041 0.898869 0.224892 0.055 Uiso 1 1 calc R U . . .
C13 C 0.2256(5) 0.8712(5) -0.0870(5) 0.0312(10) Uani 1 1 d . . . . .
C14 C 0.2594(5) 1.0163(4) -0.0824(4) 0.0285(10) Uani 1 1 d . . . . .
C15 C 0.3799(5) 1.0943(5) -0.0860(5) 0.0338(11) Uani 1 1 d . . . . .
H15 H 0.459708 1.062784 -0.092694 0.041 Uiso 1 1 calc R U . . .
C16 C 0.3702(5) 1.2287(5) -0.0784(5) 0.0327(10) Uani 1 1 d . . . . .
H16 H 0.443220 1.295536 -0.078889 0.039 Uiso 1 1 calc R U . . .
C17 C 0.2422(5) 1.2497(4) -0.0702(4) 0.0264(9) Uani 1 1 d . . . . .
C18 C 0.1941(5) 1.3757(4) -0.0650(4) 0.0256(9) Uani 1 1 d . . . . .
O1W O 0.9511(14) 0.8863(13) 0.5781(13) 0.203(5) Uani 1 1 d . U . . .
O2W O 0.0919(17) 0.999(2) -0.4617(18) 0.287(8) Uani 1 1 d . U . . .
loop_
_atom_site_aniso_label
_atom_site_aniso_U_11
_atom_site_aniso_U_22
_atom_site_aniso_U_33
_atom_site_aniso_U_23
_atom_site_aniso_U_13
_atom_site_aniso_U_12
Cd1 0.02375(19) 0.02084(19) 0.0265(2) 0.00916(13) 0.00055(13) 0.00728(12)
O1 0.043(2) 0.0284(18) 0.078(3) 0.0265(18) 0.027(2) 0.0132(15)
C1 0.037(3) 0.037(3) 0.040(3) 0.009(2) 0.002(2) 0.013(2)
N1 0.030(2) 0.035(2) 0.031(2) 0.0109(17) -0.0006(16) 0.0066(17)
S1 0.0482(8) 0.0704(10) 0.0250(6) -0.0020(6) 0.0013(6) 0.0253(7)
S2 0.0264(6) 0.0245(6) 0.0486(7) 0.0143(5) 0.0133(5) 0.0092(4)
O2 0.045(2) 0.034(2) 0.109(4) 0.032(2) 0.033(2) 0.0206(17)
C2 0.029(2) 0.042(3) 0.031(2) 0.014(2) -0.0015(19) 0.009(2)
N2 0.0251(19) 0.040(2) 0.0251(19) 0.0104(17) -0.0004(15) 0.0077(17)
O4 0.0392(18) 0.0252(16) 0.046(2) 0.0163(15) 0.0194(15) 0.0138(14)
C4 0.023(2) 0.042(3) 0.026(2) 0.011(2) 0.0017(18) 0.0070(19)
N4 0.030(2) 0.035(2) 0.030(2) 0.0101(17) -0.0023(16) 0.0071(17)
N3 0.028(2) 0.035(2) 0.026(2) 0.0067(17) -0.0023(16) 0.0072(16)
O3 0.0326(18) 0.0320(17) 0.052(2) 0.0175(16) 0.0168(16) 0.0151(14)
C3 0.036(3) 0.040(3) 0.032(3) 0.002(2) -0.001(2) 0.011(2)
C5 0.023(2) 0.041(3) 0.022(2) 0.0065(19) -0.0011(17) 0.0008(19)
N5 0.037(2) 0.057(3) 0.022(2) 0.0061(19) -0.0011(17) 0.012(2)
C6 0.025(2) 0.051(3) 0.025(2) 0.009(2) 0.0046(18) 0.012(2)
N6 0.038(2) 0.054(3) 0.030(2) 0.001(2) 0.0004(18) 0.018(2)
C9 0.022(2) 0.042(3) 0.026(2) 0.012(2) -0.0016(18) 0.0046(19)
C8 0.030(2) 0.037(3) 0.028(2) 0.007(2) 0.0023(19) 0.006(2)
C7 0.030(2) 0.050(3) 0.020(2) 0.009(2) 0.0035(18) 0.010(2)
C10 0.058(4) 0.036(3) 0.041(3) -0.002(2) -0.015(3) 0.010(3)
C11 0.026(2) 0.038(3) 0.025(2) 0.009(2) -0.0025(18) 0.0065(19)
C12 0.055(3) 0.034(3) 0.042(3) 0.005(2) -0.009(3) 0.017(2)
C13 0.033(2) 0.023(2) 0.040(3) 0.013(2) 0.006(2) 0.0088(19)
C14 0.031(2) 0.025(2) 0.034(2) 0.0128(19) 0.0098(19) 0.0116(18)
C15 0.029(2) 0.031(2) 0.050(3) 0.018(2) 0.012(2) 0.015(2)
C16 0.029(2) 0.028(2) 0.048(3) 0.019(2) 0.012(2) 0.0074(19)
C17 0.032(2) 0.022(2) 0.028(2) 0.0100(18) 0.0079(18) 0.0095(18)
C18 0.031(2) 0.024(2) 0.023(2) 0.0075(17) 0.0053(17) 0.0105(18)
O1W 0.204(5) 0.202(5) 0.200(5) 0.058(2) 0.038(2) 0.043(2)
O2W 0.292(8) 0.285(8) 0.284(8) 0.082(3) 0.060(3) 0.062(3)
loop_
_atom_type_symbol
_atom_type_description
_atom_type_scat_dispersion_real
_atom_type_scat_dispersion_imag
_atom_type_scat_source
C C 0.0033 0.0016 'International Tables Vol C Tables 4.2.6.8 and 6.1.1.4'
H H 0.0000 0.0000 'International Tables Vol C Tables 4.2.6.8 and 6.1.1.4'
N N 0.0061 0.0033 'International Tables Vol C Tables 4.2.6.8 and 6.1.1.4'
O O 0.0106 0.0060 'International Tables Vol C Tables 4.2.6.8 and 6.1.1.4'
S S 0.1246 0.1234 'International Tables Vol C Tables 4.2.6.8 and 6.1.1.4'
Cd Cd -0.8075 1.2024 'International Tables Vol C Tables 4.2.6.8 and 6.1.1.4'
loop_
_geom_angle_atom_site_label_1
_geom_angle_atom_site_label_2
_geom_angle_atom_site_label_3
_geom_angle
_geom_angle_site_symmetry_1
_geom_angle_site_symmetry_3
_geom_angle_publ_flag
O1 Cd1 N1 89.38(15) . 1_454 ?
O1 Cd1 N4 93.61(15) . . ?
N1 Cd1 N4 176.37(14) 1_454 . ?
O1 Cd1 O4 140.82(12) . 1_545 ?
N1 Cd1 O4 94.83(13) 1_454 1_545 ?
N4 Cd1 O4 84.16(13) . 1_545 ?
O1 Cd1 O3 87.64(12) . 2_575 ?
N1 Cd1 O3 89.20(13) 1_454 2_575 ?
N4 Cd1 O3 88.85(13) . 2_575 ?
O4 Cd1 O3 131.26(11) 1_545 2_575 ?
O1 Cd1 O3 165.16(12) . 1_545 ?
N1 Cd1 O3 86.44(13) 1_454 1_545 ?
N4 Cd1 O3 90.16(13) . 1_545 ?
O4 Cd1 O3 53.86(11) 1_545 1_545 ?
O3 Cd1 O3 78.08(12) 2_575 1_545 ?
O1 Cd1 O2 52.29(12) . . ?
N1 Cd1 O2 95.11(15) 1_454 . ?
N4 Cd1 O2 88.37(15) . . ?
O4 Cd1 O2 88.53(11) 1_545 . ?
O3 Cd1 O2 139.52(11) 2_575 . ?
O3 Cd1 O2 142.29(11) 1_545 . ?
C13 O1 Cd1 101.4(3) . . ?
C3 C1 N1 109.8(5) . . ?
C3 C1 H1 125.1 . . ?
N1 C1 H1 125.1 . . ?
C2 N1 C1 106.1(4) . . ?
C2 N1 Cd1 118.7(3) . 1_656 ?
C1 N1 Cd1 134.1(3) . 1_656 ?
N5 S1 N6 101.1(2) . . ?
C17 S2 C14 91.5(2) . . ?
C13 O2 Cd1 82.6(3) . . ?
N1 C2 N2 110.9(4) . . ?
C2 N2 C3 107.2(4) . . ?
C2 N2 C4 126.0(4) . . ?
C3 N2 C4 126.8(4) . . ?
C18 O4 Cd1 95.5(3) . 1_565 ?
C6 C4 C5 118.7(4) . . ?
C6 C4 N2 121.4(4) . . ?
C5 C4 N2 119.9(4) . . ?
C11 N4 C12 106.2(4) . . ?
C11 N4 Cd1 123.9(3) . . ?
C12 N4 Cd1 128.1(3) . . ?
C11 N3 C10 106.9(4) . . ?
C11 N3 C9 124.0(4) . . ?
C10 N3 C9 128.9(4) . . ?
C18 O3 Cd1 166.0(3) . 2_575 ?
C18 O3 Cd1 88.4(3) . 1_565 ?
Cd1 O3 Cd1 101.92(12) 2_575 1_565 ?
C1 C3 N2 106.0(4) . . ?
C1 C3 H3 127.0 . . ?
N2 C3 H3 127.0 . . ?
N5 C5 C4 126.9(4) . . ?
N5 C5 C8 113.1(4) . . ?
C4 C5 C8 120.0(4) . . ?
C5 N5 S1 106.7(3) . . ?
C4 C6 C7 120.9(4) . . ?
C4 C6 H6 119.5 . . ?
C7 C6 H6 119.5 . . ?
C8 N6 S1 105.9(3) . . ?
C7 C9 C8 118.2(4) . . ?
C7 C9 N3 121.1(4) . . ?
C8 C9 N3 120.7(4) . . ?
N6 C8 C9 126.9(4) . . ?
N6 C8 C5 113.2(4) . . ?
C9 C8 C5 119.9(4) . . ?
C9 C7 C6 122.1(4) . . ?
C9 C7 H7 118.9 . . ?
C6 C7 H7 118.9 . . ?
C12 C10 N3 106.4(5) . . ?
C12 C10 H10 126.8 . . ?
N3 C10 H10 126.8 . . ?
N4 C11 N3 110.6(4) . . ?
C10 C12 N4 109.9(5) . . ?
C10 C12 H12 125.0 . . ?
N4 C12 H12 125.0 . . ?
O2 C13 O1 123.3(4) . . ?
O2 C13 C14 120.7(4) . . ?
O1 C13 C14 115.9(4) . . ?
C15 C14 C13 129.8(4) . . ?
C15 C14 S2 111.7(3) . . ?
C13 C14 S2 118.5(3) . . ?
C14 C15 C16 112.4(4) . . ?
C14 C15 H15 123.8 . . ?
C16 C15 H15 123.8 . . ?
C17 C16 C15 112.7(4) . . ?
C17 C16 H16 123.6 . . ?
C15 C16 H16 123.6 . . ?
C16 C17 C18 127.5(4) . . ?
C16 C17 S2 111.6(3) . . ?
C18 C17 S2 121.0(3) . . ?
O3 C18 O4 122.2(4) . . ?
O3 C18 C17 119.9(4) . . ?
O4 C18 C17 118.0(4) . . ?
loop_
_geom_bond_atom_site_label_1
_geom_bond_atom_site_label_2
_geom_bond_distance
_geom_bond_site_symmetry_2
_geom_bond_publ_flag
Cd1 O1 2.239(3) . ?
Cd1 N1 2.299(4) 1_454 ?
Cd1 N4 2.301(4) . ?
Cd1 O4 2.345(3) 1_545 ?
Cd1 O3 2.418(3) 2_575 ?
Cd1 O3 2.499(3) 1_545 ?
Cd1 O2 2.647(4) . ?
O1 C13 1.250(6) . ?
C1 C3 1.354(7) . ?
C1 N1 1.367(7) . ?
C1 H1 0.9300 . ?
N1 C2 1.313(6) . ?
S1 N5 1.607(5) . ?
S1 N6 1.612(4) . ?
S2 C17 1.712(4) . ?
S2 C14 1.717(4) . ?
O2 C13 1.231(6) . ?
C2 N2 1.353(6) . ?
N2 C3 1.369(7) . ?
N2 C4 1.424(6) . ?
O4 C18 1.256(6) . ?
C4 C6 1.365(6) . ?
C4 C5 1.416(7) . ?
N4 C11 1.313(6) . ?
N4 C12 1.364(7) . ?
N3 C11 1.356(6) . ?
N3 C10 1.368(7) . ?
N3 C9 1.425(6) . ?
O3 C18 1.255(6) . ?
C3 H3 0.9300 . ?
C5 N5 1.343(6) . ?
C5 C8 1.426(7) . ?
C6 C7 1.419(7) . ?
C6 H6 0.9300 . ?
N6 C8 1.357(6) . ?
C9 C7 1.358(7) . ?
C9 C8 1.423(6) . ?
C7 H7 0.9300 . ?
C10 C12 1.344(8) . ?
C10 H10 0.9300 . ?
C12 H12 0.9300 . ?
C13 C14 1.489(6) . ?
C14 C15 1.359(7) . ?
C15 C16 1.411(6) . ?
C15 H15 0.9300 . ?
C16 C17 1.363(6) . ?
C16 H16 0.9300 . ?
C17 C18 1.476(6) . ?
