#------------------------------------------------------------------------------
#$Date: 2022-09-29 02:00:37 +0300 (Thu, 29 Sep 2022) $
#$Revision: 278257 $
#$URL: file:///home/coder/svn-repositories/cod/cif/7/71/13/7711366.cif $
#------------------------------------------------------------------------------
#
# This file is available in the Crystallography Open Database (COD),
# http://www.crystallography.net/
#
# All data on this site have been placed in the public domain by the
# contributors.
#
data_7711366
loop_
_publ_author_name
'Mi, Pinhong'
'Chen, Lixi'
'Li, Xiaoqi'
'Wang, Xia'
'Li, Guodong'
'Cheng, Liwei'
'Lu, Junhao'
'Zhang, Hailong'
'Wang, Yanlong'
'Wang, Shuao'
_publ_section_title
;
 Enhanced Xe/Kr separation via the pore size confinement effect of a
 microporous thorium-based metal-organic framework
;
_journal_name_full               'Dalton Transactions'
_journal_paper_doi               10.1039/D2DT01903E
_journal_year                    2022
_chemical_formula_moiety
'C24 H12 N4 O8 Th, 0.5[C3H7NO], 0.5[C2H6O], 5.5[H2O]'
_chemical_formula_sum            'C26.5 H29.5 N4.5 O14.5 Th'
_chemical_formula_weight         875.08
_chemical_name_common            Th-BPYDC-I
_space_group_crystal_system      triclinic
_space_group_IT_number           2
_space_group_name_Hall           '-P 1'
_space_group_name_H-M_alt        'P -1'
_atom_sites_solution_hydrogens   geom
_audit_creation_date             2022-09-09
_audit_creation_method
;
Olex2 1.5
(compiled 2022.04.07 svn.rca3783a0 for OlexSys, GUI svn.r6498)
;
_audit_update_record
;
2022-09-09 deposited with the CCDC.	2022-09-26 downloaded from the CCDC.
;
_cell_angle_alpha                116.395(3)
_cell_angle_beta                 98.038(4)
_cell_angle_gamma                104.109(3)
_cell_formula_units_Z            2
_cell_length_a                   9.2224(9)
_cell_length_b                   14.7467(13)
_cell_length_c                   14.9291(16)
_cell_measurement_reflns_used    9928
_cell_measurement_temperature    296.15
_cell_measurement_theta_max      23.869
_cell_measurement_theta_min      2.452
_cell_volume                     1690.3(3)
_computing_cell_refinement       'Bruker SMART'
_computing_data_collection       'Bruker SMART'
_computing_data_reduction        'Bruker SAINT'
_computing_molecular_graphics    'Olex2 1.5 (Dolomanov et al., 2009)'
_computing_publication_material  'Olex2 1.5 (Dolomanov et al., 2009)'
_computing_structure_refinement  'SHELXL 2018/1 (Sheldrick, 2015)'
_computing_structure_solution    'SHELXT 2018/2 (Sheldrick, 2018)'
_diffrn_ambient_temperature      296.15
_diffrn_measured_fraction_theta_full 0.983
_diffrn_measured_fraction_theta_max 0.983
_diffrn_measurement_device_type  'CCD area detector'
_diffrn_measurement_method       'phi and omega scans'
_diffrn_radiation_type           MoK\a
_diffrn_radiation_wavelength     0.71073
_diffrn_reflns_av_unetI/netI     0.0510
_diffrn_reflns_Laue_measured_fraction_full 0.983
_diffrn_reflns_Laue_measured_fraction_max 0.983
_diffrn_reflns_number            5870
_diffrn_reflns_point_group_measured_fraction_full 0.983
_diffrn_reflns_point_group_measured_fraction_max 0.983
_diffrn_reflns_theta_full        25.027
_diffrn_reflns_theta_max         25.027
_diffrn_reflns_theta_min         2.376
_exptl_absorpt_coefficient_mu    4.482
_exptl_absorpt_correction_T_max  0.7456
_exptl_absorpt_correction_T_min  0.5562
_exptl_absorpt_correction_type   multi-scan
_exptl_absorpt_process_details
;
 SADABS 2016/2: Krause, L., Herbst-Irmer, R., Sheldrick G.M. & Stalke D.,
 J. Appl. Cryst. 48 (2015) 3-10
;
_exptl_crystal_colour            'light colourless'
_exptl_crystal_colour_modifier   light
_exptl_crystal_colour_primary    colourless
_exptl_crystal_density_diffrn    1.719
_exptl_crystal_description       block
_exptl_crystal_F_000             852
_exptl_crystal_size_max          0.3
_exptl_crystal_size_mid          0.2
_exptl_crystal_size_min          0.2
_refine_diff_density_max         5.131
_refine_diff_density_min         -2.286
_refine_diff_density_rms         0.277
_refine_ls_extinction_coef       0.0118(11)
_refine_ls_extinction_expression Fc^*^=kFc[1+0.001xFc^2^\l^3^/sin(2\q)]^-1/4^
_refine_ls_extinction_method     'SHELXL-2018/1 (Sheldrick 2018)'
_refine_ls_goodness_of_fit_ref   1.084
_refine_ls_hydrogen_treatment    constr
_refine_ls_matrix_type           full
_refine_ls_number_parameters     335
_refine_ls_number_reflns         5870
_refine_ls_number_restraints     438
_refine_ls_restrained_S_all      1.075
_refine_ls_R_factor_all          0.0652
_refine_ls_R_factor_gt           0.0593
_refine_ls_shift/su_max          0.001
_refine_ls_shift/su_mean         0.000
_refine_ls_structure_factor_coef Fsqd
_refine_ls_weighting_details
'w=1/[\s^2^(Fo^2^)+(0.0757P)^2^+31.8599P] where P=(Fo^2^+2Fc^2^)/3'
_refine_ls_weighting_scheme      calc
_refine_ls_wR_factor_gt          0.1497
_refine_ls_wR_factor_ref         0.1550
_reflns_Friedel_coverage         0.000
_reflns_number_gt                5403
_reflns_number_total             5870
_reflns_threshold_expression     'I > 2\s(I)'
_cod_data_source_file            d2dt01903e2.cif
_cod_data_source_block           thn2_1_0m
_cod_original_formula_sum        'C26.50 H29.50 N4.50 O14.50 Th'
_cod_database_code               7711366
_shelx_shelxl_version_number     2018/1
_shelx_space_group_comment
;
The symmetry employed for this shelxl refinement is uniquely defined
by the following loop, which should always be used as a source of
symmetry information in preference to the above space-group names.
They are only intended as comments.
;
_shelx_estimated_absorpt_t_max   0.468
_shelx_estimated_absorpt_t_min   0.347
_olex2_refinement_description
;
1. Fixed Uiso
 At 1.2 times of:
  All C(H) groups
2. Uiso/Uaniso restraints and constraints
All non-hydrogen atoms have similar U: within 2A with sigma of 0.01 and sigma
for terminal atoms of 0.02 within 2A
All non-hydrogen atoms restrained to be isotropic: with sigma of 0.01 and sigma
for terminal atoms of 0.02
3.a Aromatic/amide H refined with riding coordinates:
 C2(H2), C3(H3), C4(H4), C7(H7), C8(H8), C10(H10), C12(H12), C14(H14),
 C16(H16), C18(H18), C21(H21), C23(H23)
;
_smtbx_masks_special_details
;
A solvent mask was calculated and 174 electrons were 
found in a volume of 752\%A^3^ in 1 void per unit cell. 
This is consistent with the presence of 
0.5[C3H7NO], 0.5[C2H6O] and 5.5[H2O] per Formula Unit 
which account for 176 electrons 
per unit cell.
;
_shelx_res_file
;
TITL thn2_1_0m_a.res in P-1
    thn2_1_0m.res
    created by SHELXL-2018/1 at 12:41:29 on 09-Sep-2022
REM Old TITL thn2_1_0m_a.res in P-1
REM SHELXT solution in P-1: R1 0.092, Rweak 0.021, Alpha 0.026
REM <I/s> 0.000 for 0 systematic absences, Orientation as input
REM Formula found by SHELXT: C30 O2 N13 Th
CELL 0.71073 9.2224 14.7467 14.9291 116.395 98.038 104.109
ZERR 2 0.0009 0.0013 0.0016 0.003 0.004 0.003
LATT 1
SFAC C H N O Th
UNIT 53 59 9 29 2
SIMU 0.01 0.02 2
ISOR 0.01 0.02

L.S. 50 0 0
PLAN  5
SIZE 0.2 0.2 0.3
TEMP 23
CONF
list 4
MORE -1
BOND $H
ABIN
fmap 2 53
acta
SHEL 999 0.84
OMIT -5 -4 1
OMIT -5 -5 1
OMIT -7 0 6
OMIT 0 0 2
OMIT 1 -7 2
OMIT -3 2 5
OMIT 0 -2 2
OMIT 0 2 0
OMIT 0 0 3
OMIT -1 -1 2
OMIT 5 4 0
OMIT 0 -4 1
OMIT 5 1 0
OMIT 0 2 1
OMIT 0 -2 3
OMIT 0 3 0
OMIT 0 -5 2
OMIT 7 3 3
OMIT 7 3 0
OMIT 7 2 0
OMIT 7 4 4
OMIT 7 5 1
OMIT -7 -1 7
OMIT -4 3 2
OMIT 2 -1 0
OMIT -5 -5 2
OMIT -1 5 1
OMIT 7 4 2
OMIT 6 -7 12
OMIT -1 5 2
OMIT -4 2 3
OMIT 0 -3 1
OMIT -7 -3 1
OMIT -4 -1 7
OMIT -4 2 1
OMIT 6 -8 12
OMIT -5 -1 1
OMIT -3 2 6
OMIT -3 2 7
OMIT -3 2 8
OMIT -3 1 8
OMIT 6 -6 12
OMIT -9 2 9
OMIT 6 -8 13
OMIT 9 2 2
OMIT -1 6 1
OMIT -4 4 1
OMIT 7 3 2
OMIT -1 0 2
OMIT -5 -2 2
OMIT 7 6 0
OMIT 7 2 3
OMIT 5 5 1
OMIT -1 -6 1
OMIT 6 0 0
OMIT -6 -2 2
OMIT 0 1 2
OMIT 0 -7 4
OMIT -6 -1 4
OMIT 0 -9 6
OMIT 0 -7 1
OMIT 6 -4 1
OMIT 0 3 1
OMIT -6 3 1
OMIT -6 1 1
OMIT 0 -3 3
OMIT 0 -7 2
OMIT 6 -3 1
OMIT 1 -7 3
OMIT 0 -7 3
OMIT 0 4 1
OMIT 0 4 2
OMIT 0 -5 6
OMIT 0 -3 2
OMIT 0 -4 7
OMIT 0 4 0
OMIT 0 -5 7
OMIT 0 0 5
OMIT 0 3 4
OMIT 0 0 4
OMIT 0 4 3
OMIT 0 5 2
OMIT 0 -2 1
OMIT 0 5 1
OMIT 0 -5 1
OMIT -1 7 3
OMIT 0 -6 1
OMIT 0 -1 3
REM <olex2.extras>
REM <selected_cif_records
REM  <bonds
REM   <row "$M">
REM  >
REM  <angles
REM   <row "$* $M $*">
REM  >
REM >
REM <dispersion
REM  <Th1 "-4.3695 15.2635">
REM >
REM <HklSrc "%.\\thn2_1_0m.hkl">
REM </olex2.extras>

WGHT    0.075700   31.859900
EXTI    0.011802
FVAR       1.06175
TH1   5    0.747041    1.010748    0.993390    11.00000    0.01878    0.01401 =
         0.01807    0.00662    0.00657    0.00687
O3    4    0.291540    0.890299    0.836831    11.00000    0.02436    0.04293 =
         0.02353    0.00860    0.00518    0.02191
O4    4    0.542868    0.938471    0.837367    11.00000    0.03079    0.03215 =
         0.01633    0.00442   -0.00028    0.01106
O7    4    0.993200    1.148028    1.087765    11.00000    0.01957    0.03136 =
         0.03241    0.00092    0.00284   -0.00851
O8    4    1.243086    1.167408    1.120482    11.00000    0.01898    0.03138 =
         0.03488    0.00382    0.00779    0.00924
O9    4    0.877820    0.957736    1.100465    11.00000    0.04099    0.04922 =
         0.03088    0.02361    0.01762    0.02625
O10   4    1.128178    0.978830    1.135842    11.00000    0.03727    0.05846 =
         0.03091    0.02583    0.01250    0.01265
O11   4    0.290332    0.829846    1.002388    11.00000    0.03494    0.02726 =
         0.05637    0.02529    0.01728    0.02056
O12   4    0.530329    0.890123    1.000933    11.00000    0.03282    0.02489 =
         0.04179    0.02015    0.01811    0.00180
N5    3    0.614657    0.627207    1.008303    11.00000    0.04504    0.05168 =
         0.09170    0.03833    0.02018    0.02219
N6    3    1.132656    1.005318    1.422472    11.00000    0.06550    0.09560 =
         0.05226    0.04256    0.01665    0.02427
N7    3    0.167503    0.644135    0.528823    11.00000    0.05096    0.04742 =
         0.04079    0.00102    0.00968    0.01549
N8    3    1.359813    1.476539    1.363815    11.00000    0.04552    0.04531 =
         0.04676    0.00091    0.01374    0.01208
C00F  1    0.399104    0.880348    0.794032    11.00000    0.02922    0.03219 =
         0.01782    0.00640    0.00414    0.01779
C1    1    0.355071    0.791697    0.684712    11.00000    0.03565    0.03207 =
         0.02841    0.00861    0.00848    0.01173
C2    1    0.202164    0.730006    0.624397    11.00000    0.04290    0.04168 =
         0.03568    0.00478    0.00932    0.01769
AFIX  43
H2    2    0.121512    0.748376    0.650586    11.00000   -1.20000
AFIX   0
C3    1    0.471478    0.763343    0.640094    11.00000    0.03498    0.03975 =
         0.03360    0.00269    0.01597    0.00878
AFIX  43
H3    2    0.575578    0.806024    0.675492    11.00000   -1.20000
AFIX   0
C4    1    0.433893    0.673564    0.545008    11.00000    0.03323    0.03387 =
         0.03023   -0.00216    0.01818    0.01084
AFIX  43
H4    2    0.512011    0.653144    0.516802    11.00000   -1.20000
AFIX   0
C5    1    0.281271    0.614055    0.491676    11.00000    0.04374    0.03493 =
         0.03074    0.00523    0.01373    0.01402
C6    1    1.244293    1.513174    1.393074    11.00000    0.04137    0.03195 =
         0.03496    0.00635    0.01350    0.01445
C7    1    1.094733    1.455559    1.336412    11.00000    0.03370    0.03428 =
         0.03855    0.00041    0.01031    0.01850
AFIX  43
H7    2    1.016931    1.483700    1.355405    11.00000   -1.20000
AFIX   0
C8    1    1.056842    1.357318    1.252292    11.00000    0.03831    0.03650 =
         0.04001    0.00437    0.00809    0.01759
AFIX  43
H8    2    0.952895    1.317345    1.213998    11.00000   -1.20000
AFIX   0
C9    1    1.171747    1.315851    1.222799    11.00000    0.03432    0.02590 =
         0.02931    0.00757    0.01027    0.01027
C10   1    1.325416    1.379794    1.279285    11.00000    0.03388    0.03309 =
         0.03840   -0.00104    0.01367    0.01536
AFIX  43
H10   2    1.405420    1.355411    1.258398    11.00000   -1.20000
AFIX   0
C11   1    1.133376    1.202109    1.135849    11.00000    0.02630    0.02294 =
         0.02660    0.00716    0.01053    0.01059
C12   1    0.324087    0.641490    0.990883    11.00000    0.04239    0.03951 =
         0.08622    0.03720    0.01899    0.01488
AFIX  43
H12   2    0.225398    0.647212    0.984730    11.00000   -1.20000
AFIX   0
C13   1    0.446750    0.723263    1.000053    11.00000    0.03307    0.03136 =
         0.06340    0.03037    0.01796    0.01689
C14   1    0.592904    0.714333    1.009073    11.00000    0.03992    0.04260 =
         0.07416    0.03399    0.01979    0.01886
AFIX  43
H14   2    0.677018    0.769068    1.015739    11.00000   -1.20000
AFIX   0
C15   1    0.487194    0.547274    0.997646    11.00000    0.04286    0.04530 =
         0.08660    0.03860    0.01819    0.01917
C16   1    0.342302    0.554536    0.990546    11.00000    0.04170    0.03669 =
         0.08919    0.03905    0.02107    0.01200
AFIX  43
H16   2    0.258775    0.500599    0.985623    11.00000   -1.20000
AFIX   0
C17   1    0.422699    0.821995    1.000928    11.00000    0.03210    0.02432 =
         0.04392    0.02248    0.01130    0.01463
C18   1    0.864823    0.969902    1.288339    11.00000    0.04851    0.08030 =
         0.04487    0.03635    0.01934    0.02606
AFIX  43
H18   2    0.773058    0.956964    1.242449    11.00000   -1.20000
AFIX   0
C19   1    1.006156    0.969254    1.155890    11.00000    0.03295    0.04739 =
         0.02719    0.02679    0.01638    0.02107
C20   1    1.001007    0.977918    1.259439    11.00000    0.04190    0.06284 =
         0.03510    0.03264    0.01755    0.01897
C21   1    1.132411    0.994996    1.330127    11.00000    0.05859    0.08120 =
         0.04241    0.03984    0.01247    0.02102
AFIX  43
H21   2    1.225124    0.999429    1.311754    11.00000   -1.20000
AFIX   0
C22   1    0.999298    0.996525    1.447469    11.00000    0.06111    0.08836 =
         0.04417    0.03972    0.02260    0.02650
C23   1    0.864112    0.980879    1.384063    11.00000    0.05581    0.08687 =
         0.04290    0.03863    0.02469    0.02664
AFIX  43
H23   2    0.773623    0.977716    1.405123    11.00000   -1.20000
AFIX   0
HKLF 4




REM  thn2_1_0m_a.res in P-1
REM R1 =  0.0593 for    5403 Fo > 4sig(Fo)  and  0.0652 for all    5870 data
REM    335 parameters refined using    438 restraints

END

WGHT      0.0757     31.8699

REM Highest difference peak  5.131,  deepest hole -2.286,  1-sigma level  0.277
Q1    1   0.5995  1.0178  1.0110  11.00000  0.05    5.13
Q2    1   0.9215  1.0345  1.0218  11.00000  0.05    4.94
Q3    1   0.7614  1.0342  1.0602  11.00000  0.05    2.55
Q4    1   0.7534  1.0382  0.9418  11.00000  0.05    1.67
Q5    1   0.4178  0.7224  0.7422  11.00000  0.05    1.60
;
_shelx_res_checksum              16874
_shelx_hkl_file
;
 -10  -3   5 2243.57  173.28
 -10  -3   6 2195.53  242.94
 -10  -3   7 1947.26  235.36
 -10  -2   2 2712.06  278.98
 -10  -2   3 3809.53  320.44
 -10  -2   4 2627.20  255.07
 -10  -2   5 2862.63  257.36
 -10  -2   6 2601.54  276.06
 -10  -2   7 2490.59  258.56
 -10  -2   8 3172.86  238.30
 -10  -1   1 2427.62  259.68
 -10  -1   2 3721.73  369.54
 -10  -1   3 2934.52  255.43
 -10  -1   4 2744.72  186.94
 -10  -1   5 2736.12  254.45
 -10  -1   6 3106.86  249.34
 -10  -1   7 3124.20  267.84
 -10  -1   8 2982.60  234.53
 -10  -1   9 2340.47  241.47
 -10   0   1 2001.44  214.59
 -10   0   2 3275.54  212.55
 -10   0   3 3546.86  244.58
 -10   0   4 2936.29  200.46
 -10   0   5 4734.14  310.30
 -10   0   6 4182.25  262.33
 -10   0   7 3307.58  219.00
 -10   0   8 2748.00  226.61
 -10   0   9 2411.24  214.36
 -10   1   1 2609.49  240.63
 -10   1   2 3639.69  258.56
 -10   1   3 4559.79  232.76
 -10   1   4 4351.17  311.63
 -10   1   5 4658.06  325.52
 -10   1   6 4790.54  251.55
 -10   1   7 2883.11  193.16
 -10   1   8 3092.56  213.04
 -10   1   9 2813.28  245.97
 -10   2   1 3103.71  248.71
 -10   2   2 4588.14  277.32
 -10   2   3 4058.50  232.36
 -10   2   4 4081.83  280.23
 -10   2   5 3961.39  230.74
 -10   2   6 3785.53  286.54
 -10   2   7 3104.47  196.66
 -10   2   8 2778.27  195.27
 -10   2   9 2076.72  224.90
 -10   3   1 4551.96  206.85
 -10   3   2 4056.54  267.30
 -10   3   3 3819.37  250.98
 -10   3   4 3737.07  269.00
 -10   3   5 4705.39  259.36
 -10   3   6 4091.82  277.59
 -10   3   7 3319.01  194.01
 -10   3   8 2992.51  198.18
 -10   4   1 3930.45  233.41
 -10   4   2 3061.26  198.77
 -10   4   3 2930.56  200.71
 -10   4   4 3667.33  234.91
 -10   4   5 3963.82  276.93
 -10   4   6 4021.39  243.81
 -10   4   7 3386.00  208.19
 -10   4   8 3770.14  213.59
 -10   5   1 2033.06  175.33
 -10   5   2 1549.19  157.72
 -10   5   3 2430.69  203.79
 -10   5   4 2341.98  176.64
 -10   5   5 2860.04  208.29
 -10   5   6 4100.29  300.65
 -10   5   7 2786.08  193.10
 -10   6   1 1767.85  153.15
 -10   6   2 1922.02  188.78
 -10   6   3 2394.71  189.70
 -10   6   4 2867.39  199.76
 -10   6   5 4895.21  296.13
 -10   6   6 3500.67  319.41
 -10   6   7 2890.67  189.15
 -10   7   1 1595.61  144.07
 -10   7   2 1632.96  138.59
 -10   7   3 2412.19  170.81
 -10   7   4 3877.61  222.20
 -10   7   5 3502.49  323.80
 -10   7   6 3443.67  192.46
 -10   8   1 1301.77  188.34
 -10   8   2 2082.32  237.46
 -10   8   3 3504.49  282.41
 -10   8   4 2989.35  265.81
 -10   8   5 2936.85  272.58
 -10   9   1 2140.57  241.05
 -10   9   2 2292.94  235.86
 -10   9   3 2937.05  262.52
 -10  10   1 1279.24  195.48
 -10  10   2 2155.25  231.43
  -9  -6   5  434.23  161.72
  -9  -6   6  403.82   76.75
  -9  -6   7  586.56  143.16
  -9  -6   8  515.45  134.68
  -9  -5   3  128.28   60.72
  -9  -5   4  250.65   89.25
  -9  -5   5  234.74   98.43
  -9  -5   6  659.10  160.86
  -9  -5   7 1062.17  182.72
  -9  -5   8  613.33  148.86
  -9  -5   9 1232.92  174.29
  -9  -5  10  994.61  171.44
  -9  -4   1  -30.85   30.92
  -9  -4   2   18.14   27.10
  -9  -4   3   87.44   29.19
  -9  -4   4  115.40   49.13
  -9  -4   5  461.75   99.55
  -9  -4   6  583.82  122.09
  -9  -4   7  663.57  121.87
  -9  -4   8 1216.48  161.24
  -9  -4   9  718.03  148.23
  -9  -4  10  349.84  142.09
  -9  -4  11  356.71  144.72
  -9  -3   1    5.66    3.77
  -9  -3   2    7.58    4.16
  -9  -3   3   47.32   15.28
  -9  -3   4  335.30  134.52
  -9  -3   5  539.13  135.32
  -9  -3   6  252.14  123.16
  -9  -3   7 1129.94  148.79
  -9  -3   8  173.81  103.33
  -9  -3   9  171.74  114.33
  -9  -3  10  398.58  135.18
  -9  -3  11   12.52  148.62
  -9  -2   1    5.19   35.82
  -9  -2   2    6.65    7.07
  -9  -2   3   58.50   91.95
  -9  -2   4   32.11   95.83
  -9  -2   5  176.39   96.14
  -9  -2   6  -50.88   96.41
  -9  -2   7  -57.29   90.17
  -9  -2   8  -58.35   98.38
  -9  -2   9   63.83  109.80
  -9  -2  10   97.00  105.51
  -9  -2  11 -123.83  137.83
  -9  -2  12  390.33  194.62
  -9  -1   1   10.65    5.53
  -9  -1   2   45.47   88.33
  -9  -1   3  140.73   83.12
  -9  -1   4  -32.14  110.68
  -9  -1   5   34.46  102.79
  -9  -1   6  -53.00   89.03
  -9  -1   7   69.08   89.87
  -9  -1   8  203.69   94.42
  -9  -1   9  274.46  101.97
  -9  -1  10  365.15  117.65
  -9  -1  11   76.68  125.64
  -9  -1  12  703.79  118.93
  -9   0   1   39.33  117.98
  -9   0   2   76.17   91.40
  -9   0   3   29.44   81.27
  -9   0   4  824.33  133.92
  -9   0   5  179.61  101.80
  -9   0   6  -76.76   76.76
  -9   0   7   71.63  100.63
  -9   0   8  208.58   94.21
  -9   0   9  614.47  121.84
  -9   0  10  186.82  100.91
  -9   0  11  274.58   49.49
  -9   1   1  -83.71   83.71
  -9   1   2  -37.83   73.06
  -9   1   3  914.99  112.91
  -9   1   4  482.15   96.10
  -9   1   5   72.91   85.11
  -9   1   6  -71.07   71.07
  -9   1   7  309.46   95.79
  -9   1   8  322.89  117.44
  -9   1   9  311.51   99.18
  -9   1  10  268.37   55.50
  -9   1  11   41.40   12.54
  -9   2   1  -67.08   71.09
  -9   2   2  617.85  101.75
  -9   2   3  276.19   80.89
  -9   2   4  227.03   91.39
  -9   2   5  -57.95   79.27
  -9   2   6   -1.47   73.17
  -9   2   7  297.18   91.11
  -9   2   8  236.89   90.53
  -9   2   9   -8.18   11.41
  -9   2  10   89.10   22.40
  -9   2  11   47.57   15.67
  -9   3   1  478.41  111.55
  -9   3   2  489.81  101.16
  -9   3   3  245.42   92.19
  -9   3   4  212.42   91.13
  -9   3   5   26.15   70.60
  -9   3   6  -70.42   70.42
  -9   3   7  362.43   91.79
  -9   3   8    3.12   22.29
  -9   3   9    0.24    0.19
  -9   3  10   43.43   14.96
  -9   3  11  210.40  127.70
  -9   4   1  667.78  108.48
  -9   4   2  560.18  105.43
  -9   4   3  406.68   98.26
  -9   4   4  154.78   91.50
  -9   4   5  188.95   73.97
  -9   4   6  249.81   84.67
  -9   4   7  291.40   71.16
  -9   4   8  105.57   38.65
  -9   4   9   46.78   13.68
  -9   4  10    0.01    0.06
  -9   5   1 1717.82  148.13
  -9   5   2 1396.85  159.07
  -9   5   3  849.35  137.24
  -9   5   4  978.69  145.75
  -9   5   5  868.83  171.26
  -9   5   6 1914.71  135.85
  -9   5   7  553.34   76.58
  -9   5   8  335.19   65.27
  -9   5   9  197.93   73.41
  -9   6   1 1111.69  129.64
  -9   6   2  784.54  118.79
  -9   6   3  671.54  125.84
  -9   6   4  749.00  115.60
  -9   6   5  967.91  117.01
  -9   6   6 1144.52  104.19
  -9   6   7  544.10   73.30
  -9   6   8  502.82   81.09
  -9   6   9    5.95    4.06
  -9   7   1 1212.37  132.62
  -9   7   2  969.75  111.57
  -9   7   3 1050.11  109.95
  -9   7   4  650.14   76.32
  -9   7   5 1119.03   88.12
  -9   7   6 1119.87   79.88
  -9   7   7  828.98   79.90
  -9   7   8   60.87   25.55
  -9   8   1 1886.67  200.93
  -9   8   2 1989.90  187.74
  -9   8   3  501.19  121.67
  -9   8   4 1207.39  140.81
  -9   8   5 1111.26  167.25
  -9   8   6 1001.03  117.20
  -9   8   7  436.83   65.17
  -9   9   1 2414.73  199.04
  -9   9   2  666.27  126.20
  -9   9   3 1182.96  146.52
  -9   9   4 1400.51  159.08
  -9   9   5  861.23  160.92
  -9   9   6 1381.79  141.29
  -9  10   1 1882.96  179.76
  -9  10   2 1409.92  160.25
  -9  10   3 1575.19  174.47
  -9  10   4 1059.57  165.21
  -9  10   5 1461.58  199.09
  -9  11   1 1862.88  176.60
  -9  11   2 1417.01  170.22
  -9  11   3  983.37  169.78
  -9  12   1 1375.84  198.82
  -8  -8   5 1891.14  194.38
  -8  -8   6 1646.92  177.33
  -8  -8   7 1702.05  192.96
  -8  -8   8 1288.02  162.20
  -8  -8   9 1517.20  187.32
  -8  -8  10  912.97  157.98
  -8  -7   2 2172.74  200.43
  -8  -7   3 2875.52  255.60
  -8  -7   4 2054.36  173.75
  -8  -7   5 1821.06  144.81
  -8  -7   6 2082.25  167.16
  -8  -7   7 2183.66  167.78
  -8  -7   8 2266.64  172.54
  -8  -7   9 2005.03  180.50
  -8  -7  10 1345.54  176.41
  -8  -7  11 1767.99  191.18
  -8  -7  12 1261.87  182.50
  -8  -6   1 2411.79  225.03
  -8  -6   2 2973.13  202.63
  -8  -6   3 1896.55  155.84
  -8  -6   4 1978.57  175.78
  -8  -6   5 2707.07  169.27
  -8  -6   6 3081.25  190.40
  -8  -6   7 3917.13  197.00
  -8  -6   8 2955.87  207.26
  -8  -6   9 1583.40  151.23
  -8  -6  10 2604.57  188.10
  -8  -6  11 1528.38  186.90
  -8  -6  12 1211.00  190.57
  -8  -6  13 1175.05  193.95
  -8  -5   1 3202.63  237.93
  -8  -5   2 1713.10  170.19
  -8  -5   3 2220.49  247.74
  -8  -5   4 2781.92  251.43
  -8  -5   5 3589.14  214.46
  -8  -5   6 4193.42  250.43
  -8  -5   7 5291.66  254.87
  -8  -5   8 2467.53  207.13
  -8  -5   9 2799.44  216.01
  -8  -5  10 1450.50  151.54
  -8  -5  11 1182.54  153.81
  -8  -5  12 1842.03  215.89
  -8  -5  13 2087.30  225.93
  -8  -4   1 2163.73  195.27
  -8  -4   2 2722.59  234.12
  -8  -4   3 3354.18  244.39
  -8  -4   4 3905.31  215.74
  -8  -4   5 4103.34  284.88
  -8  -4   6 5563.29  280.95
  -8  -4   7 6129.26  341.90
  -8  -4   8 3523.88  227.05
  -8  -4   9 1688.35  175.75
  -8  -4  10 1762.03  173.85
  -8  -4  11 2050.61  185.65
  -8  -4  12 2441.92  220.39
  -8  -4  13 2326.56  238.73
  -8  -3   1 4841.53  289.95
  -8  -3   2 4101.13  250.94
  -8  -3   3 5178.24  333.40
  -8  -3   4 4907.95  247.37
  -8  -3   5 5262.16  257.05
  -8  -3   6 7799.66  287.47
  -8  -3   7 4819.01  263.87
  -8  -3   8 2652.67  188.46
  -8  -3   9 3152.98  242.13
  -8  -3  10 3169.43  231.75
  -8  -3  11 3234.65  254.16
  -8  -3  12 3869.69  236.62
  -8  -3  13 2290.76  228.55
  -8  -2   1 7606.01  286.13
  -8  -2   2 8540.76  304.49
  -8  -2   3 7587.67  293.65
  -8  -2   4 8193.73  321.15
  -8  -2   513218.80  443.93
  -8  -2   6 6099.43  252.35
  -8  -2   7 7094.16  251.97
  -8  -2   8 6511.63  247.26
  -8  -2   9 5852.07  375.49
  -8  -2  10 6150.24  296.71
  -8  -2  11 5557.03  302.03
  -8  -2  12 4107.62  250.91
  -8  -2  13 4303.08  281.58
  -8  -1   1 5972.94  315.65
  -8  -1   2 5164.80  211.93
  -8  -1   3 4024.09  198.83
  -8  -1   4 8439.21  286.44
  -8  -1   5 2929.60  162.64
  -8  -1   6 4349.13  180.53
  -8  -1   7 6186.45  232.33
  -8  -1   8 4113.42  181.41
  -8  -1   9 4548.14  218.86
  -8  -1  10 5397.65  279.35
  -8  -1  11 3919.24  244.59
  -8  -1  12 3745.57  247.31
  -8  -1  13 2748.68  250.60
  -8   0   1 5411.02  223.66
  -8   0   2 5069.10  196.32
  -8   0   3 6077.14  236.22
  -8   0   4 3952.58  183.54
  -8   0   5 5067.35  188.89
  -8   0   6 5639.00  216.52
  -8   0   7 5314.13  202.96
  -8   0   8 5022.46  218.13
  -8   0   9 5222.21  237.44
  -8   0  10 5418.45  244.75
  -8   0  11 3260.98  224.74
  -8   0  12 2865.23  230.88
  -8   0  13 2102.95  234.60
  -8   1   1 5858.65  215.05
  -8   1   2 4328.65  180.40
  -8   1   3 7322.70  268.57
  -8   1   4 6114.01  331.23
  -8   1   5 6563.59  227.85
  -8   1   6 4423.38  166.98
  -8   1   7 6268.28  220.70
  -8   1   8 5508.76  230.63
  -8   1   9 6763.60  284.80
  -8   1  10 3755.42  233.91
  -8   1  11 2995.36  230.39
  -8   1  12 3181.89  242.73
  -8   1  13 3086.31  273.67
  -8   2   1 2453.92  217.03
  -8   2   2 9337.61  273.64
  -8   2   3 7904.69  245.57
  -8   2   4 6050.75  235.57
  -8   2   5 5052.52  176.00
  -8   2   6 4464.12  169.75
  -8   2   7 5359.28  217.72
  -8   2   8 6821.38  246.96
  -8   2   9 3854.85  192.67
  -8   2  10 4277.60  219.72
  -8   2  11 3840.50  234.93
  -8   2  12 2973.22  212.26
  -8   3   110245.20  287.64
  -8   3   210148.80  314.11
  -8   3   3 9805.74  394.34
  -8   3   4 6550.04  196.20
  -8   3   5 5161.41  177.51
  -8   3   6 4263.39  166.13
  -8   3   7 6350.67  232.45
  -8   3   8 4853.50  202.13
  -8   3   9 4963.15  246.53
  -8   3  10 4889.64  233.96
  -8   3  11 2937.75  192.06
  -8   3  12 3748.62  231.58
  -8   4   110565.30  354.88
  -8   4   2 9835.39  313.63
  -8   4   310141.70  505.47
  -8   4   4 5553.08  176.32
  -8   4   5 5040.69  194.10
  -8   4   6 4264.49  164.00
  -8   4   7 6355.12  230.85
  -8   4   8 5992.33  251.94
  -8   4   9 5938.22  236.07
  -8   4  10 3890.04  219.06
  -8   4  11 3791.16  232.16
  -8   5   110386.70  385.91
  -8   5   210349.70  453.46
  -8   5   3 7333.29  260.56
  -8   5   4 6014.16  206.91
  -8   5   5 4029.31  200.62
  -8   5   6 5641.42  200.84
  -8   5   7 6724.24  286.14
  -8   5   8 6659.51  315.51
  -8   5   9 4631.36  201.92
  -8   5  10 4071.04  216.65
  -8   5  11 3099.43  268.01
  -8   6   1 7461.71  318.01
  -8   6   2 5376.30  240.13
  -8   6   3 4853.27  200.71
  -8   6   4 3372.94  139.13
  -8   6   5 5089.50  191.79
  -8   6   6 4162.94  175.26
  -8   6   7 5133.71  205.77
  -8   6   8 4915.15  212.58
  -8   6   9 3477.92  181.66
  -8   6  10 3069.25  256.89
  -8   7   1 5290.82  228.69
  -8   7   2 4159.29  296.32
  -8   7   3 3193.60  202.54
  -8   7   4 5662.21  185.48
  -8   7   5 4410.18  147.99
  -8   7   6 3873.23  182.46
  -8   7   7 4819.32  206.45
  -8   7   8 3183.90  178.69
  -8   7   9 3251.23  218.49
  -8   8   1 4101.00  185.81
  -8   8   2 4905.58  204.32
  -8   8   3 5133.77  344.81
  -8   8   4 5182.72  311.28
  -8   8   5 5151.34  231.75
  -8   8   6 4737.03  162.23
  -8   8   7 3401.14  171.01
  -8   8   8 3276.59  192.93
  -8   9   1 5889.10  235.98
  -8   9   2 4839.94  277.13
  -8   9   3 5726.61  279.04
  -8   9   4 5802.43  380.59
  -8   9   5 5108.63  304.86
  -8   9   6 2941.29  184.63
  -8   9   7 3334.46  197.54
  -8  10   1 2278.89  167.09
  -8  10   2 3059.22  214.97
  -8  10   3 4655.93  276.65
  -8  10   4 3359.69  231.28
  -8  10   5 2153.76  159.56
  -8  10   6 2177.54  358.81
  -8  11   1 2278.82  206.51
  -8  11   2 3666.58  240.85
  -8  11   3 2420.80  197.96
  -8  11   4 2138.14  129.49
  -8  11   5 2395.63  182.51
  -8  12   1 2142.94  198.06
  -8  12   2 1564.80  204.50
  -8  12   3 1620.89  174.93
  -8  12   4 1702.21  198.19
  -8  13   1 1124.19  136.47
  -8  13   2 1381.91  180.01
  -7 -10   6 1209.53  134.64
  -7 -10   7 1069.74  134.92
  -7 -10   8 2130.53  171.91
  -7 -10   9 2252.71  200.61
  -7 -10  10 2383.22  191.53
  -7  -9   3 1436.31  166.69
  -7  -9   4 1367.31  191.45
  -7  -9   5 1312.59  146.08
  -7  -9   6 1849.11  149.48
  -7  -9   7 2475.26  173.09
  -7  -9   8 2811.09  174.64
  -7  -9   9 2803.61  206.50
  -7  -9  10 2234.56  166.37
  -7  -9  11 1573.78  168.53
  -7  -9  12 2828.70  234.13
  -7  -8   1  600.26  118.71
  -7  -8   2  977.71  151.66
  -7  -8   3 1450.66  150.07
  -7  -8   4  601.31  122.59
  -7  -8   5 1486.66  173.39
  -7  -8   6 1650.63  176.83
  -7  -8   7 1363.47  147.94
  -7  -8   8 2392.70  171.28
  -7  -8   9 2205.98  166.14
  -7  -8  10  891.00  133.41
  -7  -8  11 1758.98  159.01
  -7  -8  12  960.92  115.79
  -7  -8  13 1979.66  194.84
  -7  -7   1  764.96  129.13
  -7  -7   2 1115.69  136.47
  -7  -7   3  552.53  133.15
  -7  -7   4 1094.68  159.12
  -7  -7   5 1440.49  202.63
  -7  -7   6 1220.32  170.54
  -7  -7   7  973.87  150.37
  -7  -7   8 2048.43  211.90
  -7  -7   9 1075.70  143.13
  -7  -7  10 1333.48  146.48
  -7  -7  11  763.05   98.50
  -7  -7  12 1545.91  135.70
  -7  -7  13 2407.85  205.71
  -7  -7  14 2636.23  257.94
  -7  -6   1  941.75  164.95
  -7  -6   2  777.30  140.94
  -7  -6   3  896.15  133.70
  -7  -6   4  772.51  107.19
  -7  -6   5  788.02  130.51
  -7  -6   6  332.77   82.82
  -7  -6   7 1102.00  146.59
  -7  -6   8 1486.34  163.76
  -7  -6   9  744.78  159.04
  -7  -6  10  737.09   92.57
  -7  -6  11 1273.19  119.81
  -7  -6  12 1799.09  140.78
  -7  -6  13 2024.38  163.70
  -7  -6  14 1752.03  179.08
  -7  -5   1 1598.55  158.47
  -7  -5   2 1226.14  141.94
  -7  -5   3  449.78   98.87
  -7  -5   4  874.52  100.41
  -7  -5   5  640.94  108.43
  -7  -5   6  659.76  103.38
  -7  -5   7 1429.57  136.04
  -7  -5   8  319.37  104.24
  -7  -5   9 1334.73  154.69
  -7  -5  10 1802.09  145.22
  -7  -5  11 1621.82  150.60
  -7  -5  12 1848.16  150.46
  -7  -5  13 1548.58  135.19
  -7  -5  14  817.80  120.26
  -7  -5  15 1473.97  218.35
  -7  -4   1 1134.48  172.39
  -7  -4   2  649.14  110.03
  -7  -4   3  109.94   63.47
  -7  -4   4  635.43   89.94
  -7  -4   5  504.13   91.93
  -7  -4   6 1835.41  157.17
  -7  -4   7  224.47   87.41
  -7  -4   8 1329.86  117.32
  -7  -4   9 1494.54  113.84
  -7  -4  10 1581.48  141.63
  -7  -4  11 1544.07  144.61
  -7  -4  12 1768.03  149.74
  -7  -4  13  894.74  102.76
  -7  -4  14 1386.72  184.36
  -7  -4  15 1232.30  262.54
  -7  -3   1  454.84   95.43
  -7  -3   2  386.71   92.92
  -7  -3   3  355.09   72.20
  -7  -3   4  559.81   94.92
  -7  -3   5 1214.66  117.10
  -7  -3   6  643.05   96.53
  -7  -3   7  861.37   82.10
  -7  -3   8  989.99   97.14
  -7  -3   9 1377.06  108.62
  -7  -3  10 2195.78  155.00
  -7  -3  11 1751.25  136.80
  -7  -3  12 1202.17  102.97
  -7  -3  13 1196.64  159.99
  -7  -3  14 1251.81  185.78
  -7  -3  15 1648.89  220.51
  -7  -2   1  532.43   87.05
  -7  -2   2 1002.50  102.70
  -7  -2   3 1352.56  116.49
  -7  -2   4 1612.61  117.11
  -7  -2   5 3463.85  153.23
  -7  -2   6 2045.82  105.70
  -7  -2   7  992.27   76.00
  -7  -2   8 1191.74  112.26
  -7  -2   9 2301.38  131.06
  -7  -2  10 2523.21  157.46
  -7  -2  11 1989.06  129.82
  -7  -2  12 1266.90  156.90
  -7  -2  13 1530.76  181.21
  -7  -2  14 1351.63  198.59
  -7  -1   1  459.68   79.36
  -7  -1   2  536.69   83.88
  -7  -1   3  796.50   89.38
  -7  -1   4 1465.20  144.81
  -7  -1   5   48.88    8.63
  -7  -1   6   20.85    3.51
  -7  -1   7  119.53   15.25
  -7  -1   8  164.08   34.61
  -7  -1   9  588.01   51.82
  -7  -1  10 1416.18  134.97
  -7  -1  11  424.50  100.15
  -7  -1  12  708.16  146.66
  -7  -1  13  518.73  151.54
  -7  -1  14  469.56  211.32
  -7   0   1  675.30   77.88
  -7   0   2  592.96   81.92
  -7   0   3 2130.31  127.61
  -7   0   4   27.73    8.86
  -7   0   5    3.97    0.76
  -7   0   6   14.99    2.07
  -7   0   7   53.56   12.35
  -7   0   8   77.42   32.93
  -7   0   9  480.49   54.63
  -7   0  10  722.65  116.96
  -7   0  11  294.95   99.54
  -7   0  12  261.96  128.43
  -7   0  13  103.95  109.27
  -7   0  14  157.64  142.25
  -7   1   1 1128.70   89.67
  -7   1   2  805.95   80.98
  -7   1   3   31.78    3.53
  -7   1   4   44.03    4.10
  -7   1   5   42.80    2.97
  -7   1   6   31.20    2.98
  -7   1   7   32.33    4.46
  -7   1   8   84.66   25.66
  -7   1   9  552.40   95.03
  -7   1  10  525.60  106.29
  -7   1  11   26.57   91.28
  -7   1  12  -41.34  103.43
  -7   1  13  -45.14   90.48
  -7   1  14   52.46  146.57
  -7   2   1  396.96   68.85
  -7   2   2  276.68   47.48
  -7   2   3  363.42   41.81
  -7   2   4  211.57   19.72
  -7   2   5  191.93   18.33
  -7   2   6    3.66    0.55
  -7   2   7    5.49    2.17
  -7   2   8  293.10   88.36
  -7   2   9  112.91   80.36
  -7   2  10  164.51   92.49
  -7   2  11   -8.06   96.48
  -7   2  12  -82.22   82.22
  -7   2  13  240.01  114.72
  -7   3   1  801.39   75.93
  -7   3   2  761.97   82.02
  -7   3   3  834.20   60.84
  -7   3   4  481.54   47.13
  -7   3   5  169.35   21.22
  -7   3   6   50.10   13.08
  -7   3   7  114.80   77.50
  -7   3   8   62.31   74.57
  -7   3   9   82.30   74.91
  -7   3  10   78.49   74.73
  -7   3  11  -75.11   75.11
  -7   3  12  132.99   97.62
  -7   3  13  -25.80  130.76
  -7   4   1 1631.08  117.00
  -7   4   2 1700.16  117.47
  -7   4   3 1350.40   96.89
  -7   4   4  580.31   61.15
  -7   4   5  481.05   55.24
  -7   4   6   50.77   86.68
  -7   4   7  352.57   86.47
  -7   4   8  224.20   77.61
  -7   4   9   34.42   74.60
  -7   4  10   23.34   82.17
  -7   4  11  150.47   92.31
  -7   4  12  -90.42   90.42
  -7   5   1 2589.01  134.23
  -7   5   2 1507.07  109.03
  -7   5   3 1762.45  131.07
  -7   5   4  815.25   68.41
  -7   5   5  423.89   81.49
  -7   5   6  522.03  101.53
  -7   5   7  620.25   94.51
  -7   5   8  542.32   94.21
  -7   5   9   81.06   73.13
  -7   5  10   34.81   83.41
  -7   5  11  -59.74   86.52
  -7   6   1 2934.41  136.33
  -7   6   2 2436.63  125.05
  -7   6   3 2234.32  100.08
  -7   6   4 1723.70   91.54
  -7   6   5 1299.93  108.26
  -7   6   6  930.25  123.49
  -7   6   7 1303.75  117.87
  -7   6   8  214.40   82.47
  -7   6   9   90.87   78.22
  -7   6  10   49.72   83.61
  -7   6  11   37.60   98.46
  -7   7   1 2759.86  167.95
  -7   7   2 2455.25  191.43
  -7   7   3 2739.47  143.03
  -7   7   4 1948.97  142.90
  -7   7   5 1528.40  136.46
  -7   7   6  730.29  146.15
  -7   7   7  791.30  127.59
  -7   7   8  378.59   92.43
  -7   7   9  148.05  101.54
  -7   7  10  104.02  108.48
  -7   8   1 2159.46  195.56
  -7   8   2 3173.88  180.18
  -7   8   3 1253.50  140.38
  -7   8   4 1503.86  117.64
  -7   8   5  780.54  125.88
  -7   8   6  845.19  112.25
  -7   8   7  710.76  101.66
  -7   8   8  245.19   90.21
  -7   8   9  258.14  106.05
  -7   9   1 2557.79  207.53
  -7   9   2 1433.75  149.56
  -7   9   3  931.81   95.62
  -7   9   4  639.75  110.74
  -7   9   5 1187.20  159.55
  -7   9   6  680.55   91.92
  -7   9   7  525.49   95.25
  -7   9   8  344.86  106.16
  -7  10   1 5133.44  227.93
  -7  10   2 4003.82  174.21
  -7  10   3 2333.39  141.67
  -7  10   4 3226.13  250.08
  -7  10   5 2906.04  264.27
  -7  10   6 2129.50  148.32
  -7  10   7 1226.23  136.14
  -7  11   1 3640.67  190.20
  -7  11   2 2724.90  178.63
  -7  11   3 2779.68  232.16
  -7  11   4 3280.24  195.69
  -7  11   5 2573.72  186.44
  -7  11   6 1605.69  170.73
  -7  12   1 3252.97  206.52
  -7  12   2 2860.84  237.77
  -7  12   3 3997.78  205.21
  -7  12   4 2796.97  170.68
  -7  12   5 1910.70  172.84
  -7  13   1 2940.68  216.91
  -7  13   2 3825.02  195.21
  -7  13   3 3596.09  180.69
  -7  14   1 2827.75  193.25
  -6 -11   4  886.51  132.09
  -6 -11   5 1120.23  150.46
  -6 -11   6 1423.50  149.77
  -6 -11   7  959.17  126.83
  -6 -11   8 1064.99  129.97
  -6 -11   9  789.26  116.27
  -6 -11  10  742.53  121.53
  -6 -11  11  705.34  122.89
  -6 -11  12  945.78  133.85
  -6 -10   2 1642.38  153.15
  -6 -10   3 1390.03  139.48
  -6 -10   4 1227.61  151.89
  -6 -10   5 1815.11  168.37
  -6 -10   6 1552.02  161.40
  -6 -10   7 1628.58  185.12
  -6 -10   8 1687.32  166.35
  -6 -10   9 1357.58  147.38
  -6 -10  10 1031.71  150.89
  -6 -10  11 1185.82  137.24
  -6 -10  12  745.10  151.38
  -6 -10  13  677.41  134.05
  -6 -10  14  181.06  136.49
  -6  -9   1 2073.16  203.71
  -6  -9   2 1868.30  183.05
  -6  -9   3 1250.04  149.70
  -6  -9   4 2236.62  210.56
  -6  -9   5 1911.86  152.97
  -6  -9   6 2036.84  149.87
  -6  -9   7 1710.21  140.04
  -6  -9   8 1627.99  142.63
  -6  -9   9 1404.53  152.70
  -6  -9  10 1781.69  179.49
  -6  -9  11  853.67  122.34
  -6  -9  12  568.60  112.76
  -6  -9  13  423.05  134.52
  -6  -9  14  521.10  153.27
  -6  -8   1 3842.95  277.87
  -6  -8   2 3075.16  243.22
  -6  -8   3 3807.30  211.29
  -6  -8   4 4510.37  208.68
  -6  -8   5 4762.26  196.56
  -6  -8   6 4174.45  180.07
  -6  -8   7 3555.14  170.16
  -6  -8   8 3844.97  181.10
  -6  -8   9 3854.45  196.72
  -6  -8  10 4025.68  240.84
  -6  -8  11 1435.52  190.33
  -6  -8  12 1686.96  191.57
  -6  -8  13 1284.26  153.00
  -6  -8  14  987.57  173.07
  -6  -8  15 1435.73  204.06
  -6  -7   1 5020.75  263.00
  -6  -7   2 4240.69  203.16
  -6  -7   3 6941.41  260.22
  -6  -7   4 6263.91  220.19
  -6  -7   5 5567.45  206.78
  -6  -7   6 5342.85  195.70
  -6  -7   7 5080.70  196.22
  -6  -7   8 4729.88  210.76
  -6  -7   9 6673.76  231.15
  -6  -7  10 3368.00  194.44
  -6  -7  11 2124.78  195.36
  -6  -7  12 2165.96  197.90
  -6  -7  13 1595.39  163.17
  -6  -7  14 1676.56  209.06
  -6  -7  15 1723.53  219.03
  -6  -6   1 5673.27  230.63
  -6  -6   2 8466.02  284.28
  -6  -6   3 8366.70  254.33
  -6  -6   4 6794.25  231.72
  -6  -6   5 6986.10  220.01
  -6  -6   6 6699.84  220.79
  -6  -6   7 5090.91  189.90
  -6  -6   8 7737.68  252.01
  -6  -6   9 5899.97  242.69
  -6  -6  10 5300.47  241.05
  -6  -6  11 2330.79  220.12
  -6  -6  12 2355.83  212.56
  -6  -6  13 1669.50  167.47
  -6  -6  14 2031.27  200.89
  -6  -6  15 2732.10  256.95
  -6  -6  16 1628.97  224.67
  -6  -5   1 8980.33  289.00
  -6  -5   2 8048.25  255.24
  -6  -5   3 7678.83  221.60
  -6  -5   4 6859.53  210.51
  -6  -5   5 7345.14  224.44
  -6  -5   6 5024.65  173.48
  -6  -5   7 6355.91  204.11
  -6  -5   8 6925.26  231.71
  -6  -5   9 7042.19  284.24
  -6  -5  10 4587.33  221.98
  -6  -5  11 2005.90  178.28
  -6  -5  12 2247.80  193.47
  -6  -5  13 2828.10  291.94
  -6  -5  14 2714.06  223.00
  -6  -5  15 2622.02  257.27
  -6  -5  16 1908.05  263.31
  -6  -4   1 9066.96  269.27
  -6  -4   2 9858.24  301.80
  -6  -4   3 8933.09  240.31
  -6  -4   4 8512.62  239.72
  -6  -4   5 6145.84  185.85
  -6  -4   6 6011.32  192.28
  -6  -4   7 8556.01  262.32
  -6  -4   8 7907.73  247.39
  -6  -4   9 6254.49  288.12
  -6  -4  10 5499.83  250.14
  -6  -4  11 1610.47  163.58
  -6  -4  12 2951.39  218.44
  -6  -4  13 3409.89  248.49
  -6  -4  14 2367.40  235.91
  -6  -4  15 2259.30  235.65
  -6  -4  16 2156.77  273.91
  -6  -3   110103.30  283.26
  -6  -3   210584.70  261.96
  -6  -3   3 9512.32  268.11
  -6  -3   4 7529.62  201.91
  -6  -3   5 5758.54  176.89
  -6  -3   6 9637.94  250.60
  -6  -3   7 8253.79  244.58
  -6  -3   8 6978.54  226.73
  -6  -3   9 6183.73  236.72
  -6  -3  10 5788.78  329.51
  -6  -3  11 2502.70  199.04
  -6  -3  12 3724.52  233.72
  -6  -3  13 2821.61  208.89
  -6  -3  14 2055.23  206.51
  -6  -3  15 2562.45  303.73
  -6  -2   1 9374.51  265.73
  -6  -2   210129.60  276.82
  -6  -2   3 7688.34  199.19
  -6  -2   4 5115.63  154.58
  -6  -2   5 9065.68  235.45
  -6  -2   6 7731.91  256.67
  -6  -2   7 6509.15  206.48
  -6  -2   8 6342.97  233.79
  -6  -2   9 7233.01  356.88
  -6  -2  10 6968.91  290.95
  -6  -2  11 3321.50  198.61
  -6  -2  12 3641.76  222.88
  -6  -2  13 2759.66  244.06
  -6  -2  14 1756.31  207.82
  -6  -2  15 2471.28  229.53
  -6  -1   115514.00  378.80
  -6  -1   215640.90  368.50
  -6  -1   312636.20  307.27
  -6  -1   414919.20  390.62
  -6  -1   512697.60  293.52
  -6  -1   611652.10  296.18
  -6  -1   7 9811.65  291.39
  -6  -1   811522.40  351.40
  -6  -1   9 9955.13  391.90
  -6  -1  10 9598.34  472.63
  -6  -1  11 4508.77  241.06
  -6  -1  12 4251.53  227.43
  -6  -1  13 2565.11  229.82
  -6  -1  14 3054.93  254.36
  -6  -1  15 2039.87  209.54
  -6   0   112139.00  274.80
  -6   0   214655.60  335.71
  -6   0   313826.10  301.13
  -6   0   410487.70  244.20
  -6   0   510689.20  427.82
  -6   0   6 9953.45  284.33
  -6   0   711873.90  337.35
  -6   0   810060.40  340.94
  -6   0   9 8017.66  324.50
  -6   0  1010004.10  323.94
  -6   0  11 4107.11  235.26
  -6   0  12 3316.44  214.98
  -6   0  13 3354.69  219.16
  -6   0  14 2084.18  213.88
  -6   0  15 3839.14  286.94
  -6   1   116941.60  358.34
  -6   1   2 9553.69  245.20
  -6   1   313779.50  374.09
  -6   1   4 9489.37  269.53
  -6   1   510533.20  301.15
  -6   1   611902.40  360.49
  -6   1   7 9012.86  287.85
  -6   1   8 7311.96  251.42
  -6   1   9 7748.91  363.67
  -6   1  10 8730.31  296.99
  -6   1  11 3732.49  218.62
  -6   1  12 2845.71  191.13
  -6   1  13 3443.13  230.01
  -6   1  14 4032.72  267.00
  -6   2   1 9195.56  217.52
  -6   2   211134.60  262.63
  -6   2   313593.10  310.38
  -6   2   410907.80  312.27
  -6   2   511153.80  334.70
  -6   2   6 8462.60  261.00
  -6   2   7 6906.55  235.21
  -6   2   8 6877.37  272.66
  -6   2   9 7226.13  256.50
  -6   2  10 8603.53  312.60
  -6   2  11 2154.02  154.84
  -6   2  12 4843.91  236.14
  -6   2  13 4664.93  259.57
  -6   2  14 2822.85  255.66
  -6   3   115918.50  351.78
  -6   3   214932.80  362.05
  -6   3   320193.20  430.12
  -6   3   414366.30  396.28
  -6   3   510278.20  290.07
  -6   3   6 9596.84  282.99
  -6   3   7 8414.71  266.79
  -6   3   8 7808.20  345.56
  -6   3   9 8164.65  260.50
  -6   3  10 5911.93  218.91
  -6   3  11 7180.40  353.42
  -6   3  12 5336.92  279.37
  -6   3  13 3816.21  284.61
  -6   4   114366.90  351.95
  -6   4   217772.50  445.68
  -6   4   316295.90  397.73
  -6   4   410481.50  287.68
  -6   4   5 9289.22  270.17
  -6   4   6 8337.55  257.67
  -6   4   7 7866.75  242.55
  -6   4   8 7994.85  261.63
  -6   4   9 5894.81  245.28
  -6   4  1010549.40  355.74
  -6   4  11 5809.18  280.07
  -6   4  12 4144.44  223.70
  -6   4  13 3865.15  334.49
  -6   5   114561.10  362.35
  -6   5   213874.50  408.40
  -6   5   310183.10  267.73
  -6   5   4 9068.12  259.28
  -6   5   5 7211.89  207.21
  -6   5   6 7544.84  238.39
  -6   5   7 7583.16  318.37
  -6   5   8 8659.79  398.80
  -6   5   9 7329.32  280.29
  -6   5  10 7679.37  310.73
  -6   5  11 4198.56  214.78
  -6   5  12 4260.73  304.90
  -6   6   111185.40  350.85
  -6   6   2 8650.55  247.33
  -6   6   3 7497.45  214.96
  -6   6   4 5895.82  207.13
  -6   6   5 6666.98  231.76
  -6   6   6 6633.30  226.44
  -6   6   712065.20  472.19
  -6   6   8 5444.81  245.74
  -6   6   9 4776.82  229.97
  -6   6  10 5386.43  272.21
  -6   6  11 4550.69  244.01
  -6   7   1 6978.53  288.30
  -6   7   2 6311.29  236.49
  -6   7   3 5718.14  236.22
  -6   7   4 5578.96  213.04
  -6   7   5 5835.41  235.20
  -6   7   612252.00  361.73
  -6   7   7 4395.59  209.47
  -6   7   8 3793.64  236.34
  -6   7   9 3309.83  188.84
  -6   7  10 4147.57  250.80
  -6   7  11 3878.11  450.35
  -6   8   1 4277.48  189.31
  -6   8   2 4271.95  167.26
  -6   8   3 5136.46  234.78
  -6   8   4 5746.02  244.16
  -6   8   5 9975.20  333.69
  -6   8   6 4150.73  203.45
  -6   8   7 3380.08  317.48
  -6   8   8 2686.52  163.56
  -6   8   9 2213.78  263.89
  -6   8  10 3494.07  437.94
  -6   9   1 2954.91  146.35
  -6   9   2 3418.54  151.00
  -6   9   3 6150.07  241.42
  -6   9   4 6137.25  245.42
  -6   9   5 4548.31  240.20
  -6   9   6 3378.92  183.90
  -6   9   7 2386.45  141.46
  -6   9   8 1510.65  138.56
  -6   9   9 2468.42  288.45
  -6  10   1 6997.36  293.35
  -6  10   2 8608.60  266.82
  -6  10   3 6536.50  233.38
  -6  10   4 8594.16  354.02
  -6  10   5 5729.15  223.65
  -6  10   6 3555.00  177.31
  -6  10   7 2616.93  203.69
  -6  10   8 3071.99  400.83
  -6  11   1 4609.98  185.93
  -6  11   2 2187.36  134.69
  -6  11   3 6235.57  321.56
  -6  11   4 4687.05  213.27
  -6  11   5 2839.43  135.56
  -6  11   6 2461.40  146.93
  -6  11   7 2743.26  353.84
  -6  12   1  870.96   92.54
  -6  12   2 2973.73  149.87
  -6  12   3 3890.72  256.15
  -6  12   4 2268.65  140.53
  -6  12   5 2359.15  148.52
  -6  13   1 1310.35  109.78
  -6  13   2 2563.45  170.00
  -6  13   3 1633.37  115.21
  -6  13   4 2181.53  143.90
  -6  14   1 1314.95  151.18
  -6  14   2  940.89  113.31
  -5 -13   7 2737.29  201.54
  -5 -13   8 3030.65  214.29
  -5 -13   9 3563.35  213.85
  -5 -13  10 3933.45  399.55
  -5 -13  11 3399.13  244.51
  -5 -12   4 1634.04  166.68
  -5 -12   5 1476.72  135.49
  -5 -12   6 2587.25  177.48
  -5 -12   7 2378.47  160.75
  -5 -12   8 2839.64  167.64
  -5 -12   9 2561.34  174.00
  -5 -12  10 2665.12  143.98
  -5 -12  11 3795.20  235.12
  -5 -12  12 3076.50  184.25
  -5 -12  13 2101.35  160.13
  -5 -11   1 1120.98  154.35
  -5 -11   2 1009.28  127.46
  -5 -11   3 1179.15  161.10
  -5 -11   4 1834.12  272.48
  -5 -11   5 3048.91  175.26
  -5 -11   6 2883.22  160.89
  -5 -11   7 3361.19  173.72
  -5 -11   8 3425.24  173.13
  -5 -11   9 2418.01  134.94
  -5 -11  10 3771.69  174.53
  -5 -11  11 3924.56  178.12
  -5 -11  12 2539.31  189.74
  -5 -11  13 2080.95  189.87
  -5 -11  14 2545.15  226.49
  -5 -10   1  997.52  133.19
  -5 -10   2 1034.35  159.72
  -5 -10   3 1842.65  364.10
  -5 -10   4 2873.12  169.86
  -5 -10   5 3456.03  186.36
  -5 -10   6 3117.42  164.99
  -5 -10   7 3189.73  168.13
  -5 -10   8 2261.90  116.83
  -5 -10   9 2914.20  155.14
  -5 -10  10 3182.92  157.90
  -5 -10  11 4448.42  208.84
  -5 -10  12 2198.87  185.04
  -5 -10  13 3053.78  234.12
  -5 -10  14 2468.29  210.38
  -5 -10  15 1817.23  199.74
  -5  -9   1  814.88  132.38
  -5  -9   2 1533.36  146.45
  -5  -9   3 2510.39  231.81
  -5  -9   4 2925.21  160.16
  -5  -9   5 2560.84  168.54
  -5  -9   6 2793.54  146.07
  -5  -9   7 1937.08  131.04
  -5  -9   8 2060.19  111.00
  -5  -9   9 2032.45  124.42
  -5  -9  10 3484.15  165.62
  -5  -9  11 4427.60  203.83
  -5  -9  12 3249.78  292.14
  -5  -9  13 2452.59  323.69
  -5  -9  14 2372.75  256.02
  -5  -9  15 1728.95  192.71
  -5  -9  16 2108.61  234.53
  -5  -8   1 2237.85  220.28
  -5  -8   2 3553.38  202.82
  -5  -8   3 4320.49  190.36
  -5  -8   4 3920.00  167.13
  -5  -8   5 4076.25  164.07
  -5  -8   6 3415.28  130.41
  -5  -8   7 3017.04  123.10
  -5  -8   8 3114.29  129.14
  -5  -8   9 4253.12  182.36
  -5  -8  10 4944.97  195.63
  -5  -8  11 6728.39  276.14
  -5  -8  12 3575.58  225.52
  -5  -8  13 3401.17  345.30
  -5  -8  14 3053.97  256.02
  -5  -8  15 2276.91  211.60
  -5  -8  16 3180.01  318.32
  -5  -7   1 2507.01  229.11
  -5  -7   2 3029.24  208.42
  -5  -7   3 3494.43  154.09
  -5  -7   4 3738.79  154.42
  -5  -7   5 2718.11  109.94
  -5  -7   6 1783.39   87.15
  -5  -7   7 2074.16   99.61
  -5  -7   8 3367.32  174.56
  -5  -7   9 4186.89  174.22
  -5  -7  10 4305.74  217.80
  -5  -7  11 6356.74  265.75
  -5  -7  12 3796.77  220.65
  -5  -7  13 2942.26  235.72
  -5  -7  14 3752.74  270.81
  -5  -7  15 2668.76  232.66
  -5  -7  16 2036.78  226.06
  -5  -6   1 1409.34  138.32
  -5  -6   2 3048.26  347.38
  -5  -6   3 2919.02  137.51
  -5  -6   4 3235.77  117.29
  -5  -6   5 1301.78   74.90
  -5  -6   6 2079.67   90.90
  -5  -6   7 2429.98  100.44
  -5  -6   8 3662.14  135.22
  -5  -6   9 3469.97  170.63
  -5  -6  10 3146.48  180.71
  -5  -6  11 6247.99  249.71
  -5  -6  12 3389.19  207.32
  -5  -6  13 3482.99  237.49
  -5  -6  14 3276.59  291.73
  -5  -6  15 1919.81  206.26
  -5  -6  16 1686.68  213.10
  -5  -5   1 2669.84  171.50
  -5  -5   2 2557.95  158.56
  -5  -5   3 1829.23  131.66
  -5  -5   4 2128.29   93.08
  -5  -5   5 2245.84   90.47
  -5  -5   6 1947.20   82.52
  -5  -5   7 2827.71  110.39
  -5  -5   8 4373.09  212.06
  -5  -5   9 2565.33  152.20
  -5  -5  10 2115.96  162.32
  -5  -5  11 5551.25  233.48
  -5  -5  12 3134.88  211.05
  -5  -5  13 2458.14  207.72
  -5  -5  14 2488.92  237.37
  -5  -5  15 1569.12  204.58
  -5  -5  16 2110.13  238.74
  -5  -4   1 1991.51  163.86
  -5  -4   2  953.95   88.60
  -5  -4   3 1470.55   94.49
  -5  -4   4 3412.10  116.79
  -5  -4   5 1789.41   78.03
  -5  -4   6 1812.16   80.70
  -5  -4   7 3743.42  387.44
  -5  -4   8 2432.62  338.21
  -5  -4   9  959.47  111.02
  -5  -4  10 1611.55  143.42
  -5  -4  11 4181.24  228.12
  -5  -4  12 2296.53  192.07
  -5  -4  13 2249.25  218.09
  -5  -4  14 2246.93  333.27
  -5  -4  15 1021.46  181.78
  -5  -4  16 2259.54  224.46
  -5  -3   1  548.08   42.68
  -5  -3   2 1140.58   83.19
  -5  -3   3 1452.94   77.85
  -5  -3   4 2422.39   98.31
  -5  -3   5 1456.94   70.81
  -5  -3   6 2710.38  166.25
  -5  -3   7 1285.73  115.05
  -5  -3   8  474.27   82.95
  -5  -3   9 1579.95  131.76
  -5  -3  10  477.79   92.81
  -5  -3  11 3465.41  207.53
  -5  -3  12 2498.34  199.05
  -5  -3  13 2235.91  213.99
  -5  -3  14 1321.91  185.61
  -5  -3  15 2163.44  189.23
  -5  -3  16 1040.92  123.84
  -5  -2   1  243.79   16.90
  -5  -2   2  738.20   57.61
  -5  -2   3  731.49   46.82
  -5  -2   4 2089.63   84.72
  -5  -2   5 2998.71  128.91
  -5  -2   6 1063.46  101.73
  -5  -2   7  227.66   66.68
  -5  -2   8  739.53  101.39
  -5  -2   9  211.70   74.75
  -5  -2  10  206.35   80.53
  -5  -2  11 3566.11  200.28
  -5  -2  12 2442.94  198.12
  -5  -2  13 1523.05  183.25
  -5  -2  14 2203.11  218.73
  -5  -2  15 1471.14  174.27
  -5  -2  16 1586.91  154.54
  -5  -1   1   58.44    4.15
  -5  -1   2  201.32   28.18
  -5  -1   3  237.00   22.29
  -5  -1   4 2299.74  106.84
  -5  -1   5  606.75   67.71
  -5  -1   6  294.94   61.36
  -5  -1   7  -34.66   50.82
  -5  -1   8   57.49   57.17
  -5  -1   9  449.11   91.88
  -5  -1  10  392.42   87.30
  -5  -1  11 3449.75  192.94
  -5  -1  12 1650.04  167.05
  -5  -1  13  996.08  133.91
  -5  -1  14 2836.68  200.28
  -5  -1  15 1365.50  119.37
  -5   0   1  192.93   19.24
  -5   0   2   32.51    7.68
  -5   0   3  303.71   47.73
  -5   0   4  774.65   72.15
  -5   0   5  452.04   67.76
  -5   0   6  331.83   65.12
  -5   0   7   -9.15   52.12
  -5   0   8  430.59   82.90
  -5   0   9  614.88   96.11
  -5   0  10  215.09   77.16
  -5   0  11 2542.82  192.32
  -5   0  12  233.46   96.36
  -5   0  13 2317.16  190.58
  -5   0  14  709.88  102.58
  -5   0  15  745.01   87.13
  -5   1   1  332.61   29.69
  -5   1   2  706.52   60.47
  -5   1   3  553.07   53.84
  -5   1   4  571.06   73.18
  -5   1   5 1203.74   96.46
  -5   1   6   -3.83   47.67
  -5   1   7  131.31   61.03
  -5   1   8  634.90   96.57
  -5   1   9  593.50   93.59
  -5   1  10   64.11   75.12
  -5   1  11  244.12   85.02
  -5   1  12 1046.95   98.58
  -5   1  13  144.80   44.06
  -5   1  14  787.80  115.24
  -5   1  15 1075.46  124.19
  -5   2   1 1448.74   80.11
  -5   2   2 1158.17   65.79
  -5   2   3 1028.12   81.43
  -5   2   4 1616.00   99.88
  -5   2   5   99.78   47.47
  -5   2   6   61.39   54.48
  -5   2   7  319.68   71.84
  -5   2   8  420.58  104.36
  -5   2   9  546.15   84.59
  -5   2  10  194.66   83.24
  -5   2  11   96.19   28.44
  -5   2  12   52.01   16.90
  -5   2  13  406.11   64.14
  -5   2  14 1223.88  161.64
  -5   3   1  109.78   40.31
  -5   3   2  132.00   44.91
  -5   3   3 1194.57   82.81
  -5   3   4  177.17   51.28
  -5   3   5  406.63   64.91
  -5   3   6 1120.73  110.81
  -5   3   7  773.71   87.36
  -5   3   8  934.59   95.17
  -5   3   9  867.67  157.55
  -5   3  10  819.15  102.76
  -5   3  11   17.24    8.30
  -5   3  12  439.32   59.20
  -5   3  13 1076.36  128.72
  -5   3  14  549.42   91.93
  -5   4   1 1977.31   96.57
  -5   4   2  583.80   51.40
  -5   4   3 1554.91   95.73
  -5   4   4   80.76   52.42
  -5   4   5  133.45   76.78
  -5   4   6  239.57   58.25
  -5   4   7  195.01   59.84
  -5   4   8 1132.88  154.13
  -5   4   9 1512.90  140.12
  -5   4  10  208.63   60.00
  -5   4  11  130.87   26.92
  -5   4  12  400.94   62.00
  -5   4  13  382.58   88.03
  -5   5   1  532.85   96.56
  -5   5   2 2059.29  136.89
  -5   5   3 2274.43  112.74
  -5   5   4  496.04   70.78
  -5   5   5  117.92   48.70
  -5   5   6   35.31   44.52
  -5   5   7  459.40   75.09
  -5   5   8 2264.96  175.66
  -5   5   9   60.74   20.39
  -5   5  10  106.57   30.27
  -5   5  11    3.57    1.62
  -5   5  12  210.48   44.84
  -5   6   1 3263.53  151.28
  -5   6   2 3088.13  100.02
  -5   6   3 4165.60  158.79
  -5   6   4 1358.31   97.76
  -5   6   5  607.36   79.73
  -5   6   6  210.98   59.88
  -5   6   7 1720.11  114.67
  -5   6   8  256.84   45.07
  -5   6   9  104.45   24.55
  -5   6  10  360.85   82.14
  -5   6  11   17.36    9.13
  -5   6  12   -6.79   16.01
  -5   7   1 3998.84  146.75
  -5   7   2 4569.76  181.92
  -5   7   3 4211.85  243.49
  -5   7   4 2258.06  122.35
  -5   7   5 2411.40  152.19
  -5   7   6  600.65   80.42
  -5   7   7  711.09   88.78
  -5   7   8  187.85   77.75
  -5   7   9  239.88   85.27
  -5   7  10    5.37   27.18
  -5   7  11   -6.78   16.84
  -5   8   1 5790.98  273.69
  -5   8   2 4414.64  187.68
  -5   8   3 4835.44  277.27
  -5   8   4 6030.79  213.88
  -5   8   5   94.50   31.76
  -5   8   6 1252.06  116.52
  -5   8   7  878.19  106.25
  -5   8   8  593.36  119.55
  -5   8   9   44.09   59.38
  -5   8  10  269.06  108.14
  -5   9   1 5959.87  203.87
  -5   9   2 6005.24  249.70
  -5   9   3 8903.58  353.67
  -5   9   4  214.74   56.75
  -5   9   5 1459.60  119.82
  -5   9   6 1527.01  133.15
  -5   9   7  623.09  123.72
  -5   9   8  306.57  138.55
  -5   9   9  260.52  105.77
  -5  10   1 4215.31  255.93
  -5  10   2 3927.69  238.16
  -5  10   3  370.05   74.85
  -5  10   4 1287.45  131.67
  -5  10   5 1539.53  126.22
  -5  10   6  779.98  268.15
  -5  10   7 1017.94  134.86
  -5  10   8  297.55  101.58
  -5  11   1 3951.14  302.89
  -5  11   2 2297.44  246.51
  -5  11   3 1983.46  131.72
  -5  11   4 2345.65  136.74
  -5  11   5 1879.22  325.73
  -5  11   6 2002.46  161.49
  -5  11   7 1111.24  218.03
  -5  12   1 4099.00  261.45
  -5  12   2 2251.51  169.72
  -5  12   3 2300.40  174.16
  -5  12   4 2562.37  245.32
  -5  12   5 2841.95  185.46
  -5  12   6 2217.77  254.90
  -5  13   1 2376.62  230.82
  -5  13   2 2100.59  180.47
  -5  13   3 2943.66  175.00
  -5  13   4 3137.32  367.00
  -5  14   1 2003.36  196.27
  -5  14   2 2866.33  300.25
  -5  14   3 2704.71  286.24
  -5  15   1 2920.72  240.09
  -4 -14   7  -22.77   61.16
  -4 -14   8  255.04   75.45
  -4 -14   9  350.69   85.18
  -4 -14  10  453.12   90.36
  -4 -14  11  102.86   78.43
  -4 -13   3  683.68  128.02
  -4 -13   4 1079.41  128.63
  -4 -13   5  270.63   82.60
  -4 -13   6  164.73   70.87
  -4 -13   7  475.38   89.97
  -4 -13   8  754.07  103.78
  -4 -13   9  687.23  120.64
  -4 -13  10  770.79  143.04
  -4 -13  11  214.90   81.16
  -4 -13  12 -122.00  122.00
  -4 -13  13 -108.89  108.89
  -4 -13  14 -102.75  102.75
  -4 -12   1 1419.82  161.33
  -4 -12   2 1184.47  136.19
  -4 -12   3 2045.46  149.26
  -4 -12   4 1012.36  116.03
  -4 -12   5 1097.84  143.64
  -4 -12   6 1405.59  165.27
  -4 -12   7 1658.36  119.22
  -4 -12   8 1529.01  140.37
  -4 -12   9 1736.12  175.90
  -4 -12  10 1051.06  139.14
  -4 -12  11  968.28  172.67
  -4 -12  12  -36.05   81.61
  -4 -12  13  103.83  109.07
  -4 -12  14   27.84   98.68
  -4 -12  15   39.24  101.50
  -4 -11   1 1480.79  127.62
  -4 -11   2 2139.55  145.59
  -4 -11   3 1369.01  123.37
  -4 -11   4 2337.45  148.90
  -4 -11   5 2556.68  163.13
  -4 -11   6 2257.39  132.14
  -4 -11   7 1754.45  137.71
  -4 -11   8 1757.30  117.54
  -4 -11   9 1751.85  120.65
  -4 -11  10 1355.19  142.20
  -4 -11  11 1171.50  146.22
  -4 -11  12  394.18  102.09
  -4 -11  13  696.24  136.56
  -4 -11  14  441.00  130.92
  -4 -11  15  202.73  115.98
  -4 -11  16    0.50  122.04
  -4 -10   1 1903.57  186.68
  -4 -10   2 2751.39  155.66
  -4 -10   3 4871.33  194.66
  -4 -10   4 5164.19  186.30
  -4 -10   5 3415.84  145.10
  -4 -10   6 2693.76  114.06
  -4 -10   7 2523.00  117.51
  -4 -10   8 2983.59  168.86
  -4 -10   9 1849.12  122.97
  -4 -10  10 1734.46  127.99
  -4 -10  11 2560.30  196.59
  -4 -10  12 1179.37  151.75
  -4 -10  13  855.90  138.96
  -4 -10  14  475.03  137.54
  -4 -10  15  279.69  124.16
  -4 -10  16  139.93  123.55
  -4  -9   1 4787.75  204.39
  -4  -9   2 6953.17  305.70
  -4  -9   3 5979.16  202.02
  -4  -9   4 5301.35  176.36
  -4  -9   5 4041.08  144.04
  -4  -9   6 2875.02  124.45
  -4  -9   7 3742.36  142.90
  -4  -9   8 2391.42  124.29
  -4  -9   9 2485.27  146.66
  -4  -9  10 2773.65  162.90
  -4  -9  11 3920.76  224.33
  -4  -9  12 1691.82  174.28
  -4  -9  13 1002.51  194.49
  -4  -9  14  924.52  157.56
  -4  -9  15  317.81  127.55
  -4  -9  16  603.12  144.80
  -4  -8   1 6762.67  229.85
  -4  -8   2 6495.31  219.37
  -4  -8   3 5805.36  177.59
  -4  -8   4 5745.18  178.54
  -4  -8   5 3260.05  141.29
  -4  -8   6 3132.76  121.36
  -4  -8   7 1925.55  113.83
  -4  -8   8 3273.42  150.02
  -4  -8   9 3117.19  161.02
  -4  -8  10 2886.00  164.59
  -4  -8  11 4824.70  244.69
  -4  -8  12 1700.23  178.28
  -4  -8  13 1228.64  150.99
  -4  -8  14  994.60  191.16
  -4  -8  15  909.19  153.48
  -4  -8  16  643.48  147.16
  -4  -8  17  416.06  158.69
  -4  -7   1 7843.94  239.39
  -4  -7   2 7724.79  220.83
  -4  -7   3 7858.05  236.51
  -4  -7   4 6865.72  179.43
  -4  -7   5 3761.80  130.13
  -4  -7   6 3438.35  164.32
  -4  -7   7 5169.97  191.94
  -4  -7   8 4799.23  176.93
  -4  -7   9 3656.64  158.77
  -4  -7  10 4036.11  182.21
  -4  -7  11 5416.60  239.42
  -4  -7  12 1815.66  177.60
  -4  -7  13 2050.13  183.65
  -4  -7  14 1705.69  195.27
  -4  -7  15  824.48  150.24
  -4  -7  16 1033.59  169.66
  -4  -7  17  205.37  134.76
  -4  -6   1 7760.56  207.29
  -4  -6   2 8151.49  208.70
  -4  -6   3 7668.19  194.97
  -4  -6   4 5270.98  150.88
  -4  -6   5 5724.04  158.20
  -4  -6   6 6067.22  190.71
  -4  -6   7 5707.10  188.80
  -4  -6   8 4828.21  177.99
  -4  -6   9 4831.55  180.71
  -4  -6  10 4081.34  183.56
  -4  -6  11 4384.76  220.85
  -4  -6  12 3265.46  234.78
  -4  -6  13 2472.99  230.68
  -4  -6  14 1510.62  186.20
  -4  -6  15 1294.47  197.21
  -4  -6  16  977.54  152.88
  -4  -6  17  154.61  135.77
  -4  -5   1 7068.28  196.08
  -4  -5   2 7551.96  188.56
  -4  -5   3 3212.41  104.50
  -4  -5   4 9942.98  221.19
  -4  -5   5 6535.47  183.97
  -4  -5   6 5091.28  255.09
  -4  -5   7 4872.68  169.31
  -4  -5   8 5038.87  181.32
  -4  -5   9 4756.05  201.21
  -4  -5  10 2001.03  145.17
  -4  -5  11 5899.25  288.24
  -4  -5  12 2541.39  208.95
  -4  -5  13 2184.66  203.75
  -4  -5  14 2158.60  227.58
  -4  -5  15 2225.78  218.30
  -4  -5  16  512.13  118.71
  -4  -5  17  593.15  204.41
  -4  -4   111368.40  254.53
  -4  -4   2 6611.97  168.56
  -4  -4   312319.00  254.39
  -4  -4   416585.10  352.32
  -4  -4   5 8484.03  244.28
  -4  -4   611289.40  282.68
  -4  -4   7 7640.87  220.42
  -4  -4   8 7838.52  229.63
  -4  -4   9 4898.39  197.07
  -4  -4  10 3375.06  171.61
  -4  -4  11 5672.18  269.01
  -4  -4  12 3676.00  230.53
  -4  -4  13 3666.61  240.92
  -4  -4  14 3774.78  258.37
  -4  -4  15 2046.24  207.28
  -4  -4  16  928.25  149.42
  -4  -4  17  958.90  182.75
  -4  -3   112674.70  250.78
  -4  -3   214898.70  290.34
  -4  -3   315811.20  355.65
  -4  -3   414651.70  315.91
  -4  -3   516110.10  364.28
  -4  -3   6 9032.28  265.41
  -4  -3   7 8211.30  229.21
  -4  -3   8 9147.81  297.20
  -4  -3   9 4446.63  183.34
  -4  -3  10 2530.01  160.18
  -4  -3  11 7110.53  310.18
  -4  -3  12 4973.15  259.32
  -4  -3  13 5213.00  255.67
  -4  -3  14 3999.23  237.22
  -4  -3  15 1418.48  161.16
  -4  -3  16 2249.19  300.22
  -4  -2   116458.20  392.86
  -4  -2   214558.00  326.97
  -4  -2   312767.50  294.01
  -4  -2   422275.40  469.94
  -4  -2   512521.60  305.05
  -4  -2   611940.00  290.61
  -4  -2   713934.90  383.47
  -4  -2   8 4637.11  179.27
  -4  -2   9 4430.99  185.61
  -4  -2  10 3999.82  200.35
  -4  -2  11 8634.00  310.78
  -4  -2  12 6689.22  276.81
  -4  -2  13 7124.88  267.27
  -4  -2  14 2351.93  200.45
  -4  -2  15 3529.94  224.32
  -4  -2  16 1846.09  190.80
  -4  -1   121112.80  444.58
  -4  -1   219949.80  396.81
  -4  -1   313174.70  281.36
  -4  -1   423677.20  538.04
  -4  -1   515854.30  355.23
  -4  -1   623066.50  529.20
  -4  -1   7 7996.67  240.41
  -4  -1   8 8465.81  265.62
  -4  -1   9 7456.07  255.19
  -4  -1  10 5755.48  234.69
  -4  -1  11 8667.80  336.19
  -4  -1  12 9743.10  313.48
  -4  -1  13 4869.49  240.87
  -4  -1  14 4054.85  243.65
  -4  -1  15 2064.79  190.68
  -4  -1  16 1703.09  210.52
  -4   0   116436.40  354.27
  -4   0   2 8956.34  203.29
  -4   0   310776.90  251.43
  -4   0   417327.10  403.38
  -4   0   519540.20  488.95
  -4   0   611312.80  321.25
  -4   0   710005.70  280.65
  -4   0   8 8777.50  287.18
  -4   0   9 9102.60  332.75
  -4   0  10 4838.28  224.07
  -4   0  1111033.00  413.60
  -4   0  12 8755.92  354.85
  -4   0  13 4321.55  222.54
  -4   0  14 2717.30  321.86
  -4   0  15 2053.77  190.08
  -4   1   1 7762.35  178.53
  -4   1   2 9934.24  215.93
  -4   1   3 8783.22  229.84
  -4   1   417691.80  408.44
  -4   1   517187.50  405.39
  -4   1   615300.50  464.82
  -4   1   710681.10  346.38
  -4   1   810434.60  323.20
  -4   1   9 7328.58  284.74
  -4   1  10 5811.87  244.93
  -4   1  1113360.50  419.36
  -4   1  12 4205.93  212.18
  -4   1  13 3588.76  207.01
  -4   1  14 2932.17  268.50
  -4   1  15 3123.45  263.80
  -4   2   1 7862.27  175.66
  -4   2   212105.60  291.81
  -4   2   3 4580.83  144.41
  -4   2   424995.60  550.94
  -4   2   519007.50  479.02
  -4   2   614878.60  423.01
  -4   2   711605.40  319.13
  -4   2   8 8177.32  240.37
  -4   2   9 6634.92  231.69
  -4   2  1010900.70  336.57
  -4   2  11 4240.17  198.74
  -4   2  12 4570.46  222.27
  -4   2  13 3632.71  208.61
  -4   2  14 2845.98  259.64
  -4   3   1 5044.13  133.17
  -4   3   2 1556.70   79.74
  -4   3   310232.20  286.12
  -4   3   415833.80  405.50
  -4   3   513026.50  353.51
  -4   3   6 9919.16  327.63
  -4   3   7 7479.65  214.83
  -4   3   8 5635.07  198.25
  -4   3   910755.60  397.29
  -4   3  10 3020.32  156.24
  -4   3  11 5377.78  228.79
  -4   3  12 4496.00  240.06
  -4   3  13 3225.87  250.43
  -4   3  14 2858.51  243.33
  -4   4   1 5178.20  140.22
  -4   4   217449.70  431.14
  -4   4   313088.80  311.04
  -4   4   417805.50  409.12
  -4   4   513426.20  329.05
  -4   4   6 9737.95  273.57
  -4   4   7 7512.75  214.31
  -4   4   8 7438.91  239.19
  -4   4   9 7211.70  248.94
  -4   4  10 5421.94  239.54
  -4   4  11 5063.88  300.24
  -4   4  12 3944.58  230.35
  -4   4  13 3612.03  275.63
  -4   5   113941.20  363.99
  -4   5   215486.00  380.40
  -4   5   311805.90  308.84
  -4   5   412779.50  310.95
  -4   5   511246.40  276.95
  -4   5   6 9839.32  298.21
  -4   5   7 4280.36  160.41
  -4   5   810430.60  344.93
  -4   5   9 8516.74  309.26
  -4   5  10 5330.29  234.30
  -4   5  11 4580.39  246.46
  -4   5  12 3929.99  219.64
  -4   5  13 2982.24  234.18
  -4   6   113054.30  346.67
  -4   6   212740.20  323.24
  -4   6   3 8128.45  233.37
  -4   6   4 9637.59  262.43
  -4   6   5 9663.54  270.17
  -4   6   6 2484.00  136.12
  -4   6   712459.80  447.56
  -4   6   8 9427.80  309.36
  -4   6   9 6871.58  272.74
  -4   6  10 5056.39  240.06
  -4   6  11 3923.67  258.39
  -4   6  12 3625.11  446.22
  -4   7   110597.70  295.11
  -4   7   210765.40  304.97
  -4   7   3 7323.47  208.16
  -4   7   4 7966.43  228.53
  -4   7   5 3389.42  166.43
  -4   7   611916.50  351.10
  -4   7   7 9469.34  324.54
  -4   7   8 6939.05  283.54
  -4   7   9 6958.99  319.92
  -4   7  10 4030.40  281.71
  -4   7  11 3415.41  292.44
  -4   8   1 8779.24  237.84
  -4   8   2 7341.86  195.90
  -4   8   3 4625.15  159.31
  -4   8   4 4832.41  169.15
  -4   8   5 9141.62  349.30
  -4   8   6 8167.08  284.51
  -4   8   7 6417.61  254.43
  -4   8   8 7028.59  744.97
  -4   8   9 4928.84  265.63
  -4   8  10 3813.56  437.52
  -4   9   1 5415.26  160.23
  -4   9   2 4141.01  143.79
  -4   9   3 7249.70  301.72
  -4   9   4 6148.08  227.58
  -4   9   5 6857.76  251.82
  -4   9   6 5394.79  235.91
  -4   9   7 5832.77  328.08
  -4   9   8 4514.13  253.06
  -4   9   9 4578.29  274.97
  -4  10   1 3523.24  138.35
  -4  10   210051.30  334.60
  -4  10   3 3384.57  159.57
  -4  10   4 4914.56  188.74
  -4  10   5 4782.84  196.62
  -4  10   6 4531.30  251.10
  -4  10   7 3984.49  226.38
  -4  10   8 3634.81  252.89
  -4  11   1 8947.59  248.97
  -4  11   2 3300.99  113.38
  -4  11   3 3647.78  142.58
  -4  11   4 3823.55  167.79
  -4  11   5 3483.81  190.32
  -4  11   6 2689.91  250.16
  -4  11   7 3017.73  240.60
  -4  12   1 3093.90  115.97
  -4  12   2 3118.60  132.84
  -4  12   3 2924.95  189.99
  -4  12   4 2753.60  167.47
  -4  12   5 2858.74  272.90
  -4  12   6 1942.39  164.03
  -4  13   1 2193.74  111.18
  -4  13   2 2369.95  140.63
  -4  13   3 2027.44  226.26
  -4  13   4 1725.99  288.61
  -4  14   1  921.14   69.75
  -4  14   2 1274.48  172.84
  -4  14   3  900.74  116.40
  -4  15   1  924.03  211.99
  -3 -15   7 3681.53  211.52
  -3 -15   8 3844.49  276.66
  -3 -15   9 3018.59  262.33
  -3 -15  10 2695.73  226.07
  -3 -15  11 3569.30  208.96
  -3 -14   3 1451.63  134.74
  -3 -14   4 3317.74  208.31
  -3 -14   5 2998.01  388.20
  -3 -14   6 4377.49  216.12
  -3 -14   7 3394.17  196.69
  -3 -14   8 2538.17  228.16
  -3 -14   9 2622.79  170.80
  -3 -14  10 3354.86  191.19
  -3 -14  11 3180.09  310.92
  -3 -14  12 3417.97  321.47
  -3 -14  13 3498.89  277.43
  -3 -14  14 2845.75  240.03
  -3 -13   1 1425.84  148.12
  -3 -13   2 1575.34  130.59
  -3 -13   3 2587.14  157.76
  -3 -13   4 3453.18  325.74
  -3 -13   5 4662.48  245.85
  -3 -13   6 3341.89  198.76
  -3 -13   7 2918.02  175.01
  -3 -13   8 2952.82  321.44
  -3 -13   9 2952.68  194.16
  -3 -13  10 4178.36  231.77
  -3 -13  11 2821.56  193.71
  -3 -13  12 4037.10  265.76
  -3 -13  13 4011.94  246.25
  -3 -13  14 2937.33  204.62
  -3 -13  15 2565.18  255.07
  -3 -12   1 1668.98  138.19
  -3 -12   2 1355.43  138.80
  -3 -12   3 4393.60  190.23
  -3 -12   4 3578.00  187.92
  -3 -12   5 2573.92  115.53
  -3 -12   6 2582.19  122.55
  -3 -12   7 2803.01  146.06
  -3 -12   8 2987.95  179.54
  -3 -12   9 4373.07  196.91
  -3 -12  10 2869.82  165.15
  -3 -12  11 2872.43  191.11
  -3 -12  12 3501.93  242.77
  -3 -12  13 3133.15  289.01
  -3 -12  14 2840.19  290.70
  -3 -12  15 2267.83  222.29
  -3 -12  16 3021.16  225.52
  -3 -11   1  937.83   98.27
  -3 -11   2 5828.64  222.41
  -3 -11   3 2523.12  137.84
  -3 -11   4 2515.08  148.37
  -3 -11   5 4011.22  172.16
  -3 -11   6 4006.01  154.12
  -3 -11   7 3829.96  179.42
  -3 -11   8 5911.98  308.12
  -3 -11   9 4561.65  263.04
  -3 -11  10 4898.63  199.29
  -3 -11  11 3749.41  186.44
  -3 -11  12 4702.14  217.94
  -3 -11  13 4347.04  230.47
  -3 -11  14 3592.17  238.43
  -3 -11  15 3896.34  257.57
  -3 -11  16 3838.17  258.18
  -3 -10   1 5416.10  193.63
  -3 -10   2 1939.11  101.13
  -3 -10   3 2942.52  170.18
  -3 -10   4 4065.18  142.66
  -3 -10   5 5220.02  159.81
  -3 -10   6 4471.04  215.25
  -3 -10   7 6705.89  361.40
  -3 -10   8 5532.73  274.28
  -3 -10   9 6201.62  232.90
  -3 -10  10 4456.37  201.91
  -3 -10  11 3422.98  184.47
  -3 -10  12 4861.08  224.93
  -3 -10  13 4071.45  223.00
  -3 -10  14 4609.83  265.37
  -3 -10  15 4339.26  271.27
  -3 -10  16 3922.85  415.09
  -3 -10  17 3352.56  242.64
  -3  -9   1  919.20   83.77
  -3  -9   2 1964.85  134.44
  -3  -9   3 3290.71  124.50
  -3  -9   4 3791.73  124.84
  -3  -9   5 4173.74  127.00
  -3  -9   6 4850.18  156.38
  -3  -9   7 5958.36  185.87
  -3  -9   8 5319.17  180.73
  -3  -9   9 5081.96  199.98
  -3  -9  10 4582.32  218.82
  -3  -9  11 3663.83  192.64
  -3  -9  12 4732.34  223.37
  -3  -9  13 4196.98  224.30
  -3  -9  14 4999.71  409.35
  -3  -9  15 3720.87  250.47
  -3  -9  16 3297.33  238.25
  -3  -9  17 3633.20  245.19
  -3  -8   1 1293.45  102.49
  -3  -8   2 2957.04  114.22
  -3  -8   3 3414.95  115.88
  -3  -8   4 3167.80  107.14
  -3  -8   5 3785.36  139.13
  -3  -8   6 6417.10  181.82
  -3  -8   7 4099.43  153.51
  -3  -8   8 4732.84  167.54
  -3  -8   9 4627.16  195.05
  -3  -8  10 5380.50  412.45
  -3  -8  11 3471.30  188.31
  -3  -8  12 3563.25  200.80
  -3  -8  13 4690.60  280.13
  -3  -8  14 4751.13  266.18
  -3  -8  15 3643.12  227.93
  -3  -8  16 3715.10  226.32
  -3  -8  17 3343.83  237.95
  -3  -7   1 1720.22   98.67
  -3  -7   2 2705.46  105.41
  -3  -7   3 3657.66  114.10
  -3  -7   4 1783.63  112.03
  -3  -7   5 5364.00  151.32
  -3  -7   6 2831.78  114.42
  -3  -7   7 3258.51  132.10
  -3  -7   8 4679.88  166.64
  -3  -7   9 4834.21  178.01
  -3  -7  10 5586.54  224.93
  -3  -7  11 2269.95  166.88
  -3  -7  12 3638.08  277.64
  -3  -7  13 4350.77  260.49
  -3  -7  14 4293.36  259.77
  -3  -7  15 4074.48  247.69
  -3  -7  16 3355.97  215.44
  -3  -7  17 2447.18  230.10
  -3  -6   1 1610.24   83.61
  -3  -6   2 3075.23  105.33
  -3  -6   3 1337.76   77.35
  -3  -6   4 1651.57   85.61
  -3  -6   5  948.45   73.74
  -3  -6   6 1661.49   97.11
  -3  -6   7 3748.36  139.60
  -3  -6   8 3414.88  139.53
  -3  -6   9 4506.74  166.97
  -3  -6  10 3130.50  185.65
  -3  -6  11 1573.71  143.37
  -3  -6  12 3256.56  194.62
  -3  -6  13 3563.16  187.61
  -3  -6  14 4826.87  242.87
  -3  -6  15 3522.46  225.65
  -3  -6  16 2659.17  170.81
  -3  -6  17 2087.08  189.84
  -3  -5   1 1287.25   55.64
  -3  -5   2 1855.25  166.79
  -3  -5   3  248.87   41.11
  -3  -5   4  407.93   49.81
  -3  -5   5  148.70   44.55
  -3  -5   6 1587.73   96.20
  -3  -5   7 1811.38  107.80
  -3  -5   8 2856.92  128.88
  -3  -5   9 2441.38  140.46
  -3  -5  10 1416.46  141.78
  -3  -5  11 1820.50  150.70
  -3  -5  12 2632.28  148.88
  -3  -5  13 3497.17  200.12
  -3  -5  14 4363.45  233.06
  -3  -5  15 3482.61  217.71
  -3  -5  16 1253.30  118.48
  -3  -5  17 2416.65  254.88
  -3  -4   1 5567.29  141.60
  -3  -4   2  453.71   46.86
  -3  -4   3 1372.28   77.34
  -3  -4   4  215.41   44.16
  -3  -4   5 2988.47  116.91
  -3  -4   6 3638.80  129.55
  -3  -4   7 4194.01  146.47
  -3  -4   8 5313.77  186.83
  -3  -4   9 2313.30  136.99
  -3  -4  10 4122.40  209.76
  -3  -4  11 2752.73  135.51
  -3  -4  12 3918.73  184.69
  -3  -4  13 4383.23  224.57
  -3  -4  14 5446.20  232.51
  -3  -4  15 1419.64  128.95
  -3  -4  16 1930.93  181.26
  -3  -4  17 1459.75  203.26
  -3  -3   1  370.96   41.13
  -3  -3   2  627.80   53.41
  -3  -3   3  328.13   44.28
  -3  -3   4  142.13   37.76
  -3  -3   5 1853.56   89.56
  -3  -3   6 2124.32   99.77
  -3  -3   7 4517.23  163.56
  -3  -3   8 1835.97  119.50
  -3  -3   9 3509.39  243.05
  -3  -3  10 3492.57  173.66
  -3  -3  11 2888.30  142.14
  -3  -3  12 4150.00  188.94
  -3  -3  13 4979.39  196.53
  -3  -3  14 2793.45  153.75
  -3  -3  15 1799.48  192.02
  -3  -3  16 1531.50  215.29
  -3  -3  17 2028.93  251.58
  -3  -2   1  111.46   32.06
  -3  -2   2  495.62   46.46
  -3  -2   3  152.85   35.88
  -3  -2   4   77.34   33.56
  -3  -2   5 1540.49   85.13
  -3  -2   6 3334.72  136.02
  -3  -2   7 2230.34  117.18
  -3  -2   8 3014.00  147.43
  -3  -2   9 2006.13  107.99
  -3  -2  10 2765.15  146.62
  -3  -2  11 3152.40  150.21
  -3  -2  12 3834.16  178.08
  -3  -2  13 2770.06  171.38
  -3  -2  14 1609.41  232.20
  -3  -2  15 1325.85  166.90
  -3  -2  16 1297.84  180.95
  -3  -1   1 1157.44   55.39
  -3  -1   2   47.23   25.50
  -3  -1   3 3863.30  113.99
  -3  -1   4  982.69   66.78
  -3  -1   5 1430.34   87.16
  -3  -1   6 4280.59  149.97
  -3  -1   7 2289.48  115.06
  -3  -1   8 1125.60   71.28
  -3  -1   9 1562.03  104.06
  -3  -1  10 2972.55  162.45
  -3  -1  11 2593.61  138.35
  -3  -1  12 3348.00  160.64
  -3  -1  13  945.21  128.50
  -3  -1  14 1863.56  201.88
  -3  -1  15 1140.13  160.63
  -3  -1  16 1552.76  251.81
  -3   0   1 3130.07   89.54
  -3   0   2  472.33   43.60
  -3   0   3   44.57   25.60
  -3   0   4  273.39   43.51
  -3   0   5 3515.07  127.45
  -3   0   6  948.34  229.26
  -3   0   7  195.36   24.52
  -3   0   8  752.63   56.52
  -3   0   9 1208.26   78.31
  -3   0  10 1445.03  113.61
  -3   0  11 3069.96  148.40
  -3   0  12 1039.36  129.75
  -3   0  13 1490.17  161.58
  -3   0  14 1232.57  212.29
  -3   0  15 1134.39  159.31
  -3   1   1   74.71   21.61
  -3   1   2   66.06   29.61
  -3   1   3   36.92   28.37
  -3   1   4 1353.81   86.05
  -3   1   5   46.17   39.31
  -3   1   7   55.03    5.90
  -3   1   8  289.91   23.70
  -3   1   9  228.94   32.35
  -3   1  10 1477.91  107.44
  -3   1  11 1096.61  121.70
  -3   1  12  953.88  131.02
  -3   1  13  586.74  123.75
  -3   1  14 1052.17  168.16
  -3   1  15  801.04  160.70
  -3   2   1  479.99   36.75
  -3   2   2  227.19   35.82
  -3   2   3 1259.36   80.48
  -3   2   4   67.89   35.76
  -3   2   5    1.52    0.34
  -3   2   6   15.34    1.32
  -3   2   7   32.76    4.61
  -3   2   8   28.68    5.39
  -3   2   9  101.36   22.81
  -3   2  10 1411.01  138.84
  -3   2  11  548.10   99.07
  -3   2  12  376.08  104.49
  -3   2  13  451.50  128.30
  -3   2  14  594.19  146.57
  -3   3   1  920.52   64.20
  -3   3   2 1575.89   78.10
  -3   3   3  244.67   37.25
  -3   3   4  373.47   42.56
  -3   3   5  177.97   24.11
  -3   3   6   94.10   10.93
  -3   3   7  243.53   44.54
  -3   3   8  101.70   32.61
  -3   3   9  676.86   94.90
  -3   3  10  210.29   75.82
  -3   3  11  291.95  117.48
  -3   3  12   70.62  110.83
  -3   3  13   66.81  110.03
  -3   3  14  623.86  153.38
  -3   4   1 3792.73  115.66
  -3   4   2 1128.00   64.93
  -3   4   3  314.04   34.90
  -3   4   4  505.09   47.14
  -3   4   5  381.05   38.78
  -3   4   6  170.35   24.49
  -3   4   7  572.87   74.55
  -3   4   8  212.51   62.96
  -3   4   9  -15.25   56.17
  -3   4  10   81.59   79.35
  -3   4  11  -29.17   84.37
  -3   4  12   21.99   95.66
  -3   4  13  102.27  137.89
  -3   5   1 1980.09   74.64
  -3   5   2 1939.57   84.79
  -3   5   3  889.08   68.57
  -3   5   4  935.71   73.27
  -3   5   5  492.72   51.78
  -3   5   6  466.55   61.65
  -3   5   7  111.08   52.23
  -3   5   8  162.07   58.80
  -3   5   9  -60.48   60.48
  -3   5  10   27.14   70.15
  -3   5  11  -69.79   69.79
  -3   5  12    1.28   91.75
  -3   6   1 4259.21  126.80
  -3   6   2 3240.74  115.09
  -3   6   3 1118.51   74.65
  -3   6   4 1335.28   92.84
  -3   6   5  491.59   78.93
  -3   6   6  359.45   82.31
  -3   6   7  366.20   89.87
  -3   6   8  177.16   94.64
  -3   6   9   32.22  102.25
  -3   6  10  -82.43   97.59
  -3   6  11  -87.93  118.08
  -3   6  12  -30.07  152.30
  -3   7   1 2764.01   92.85
  -3   7   2 1356.09   70.44
  -3   7   3  633.16   58.21
  -3   7   4  155.60   28.17
  -3   7   5  937.62  102.85
  -3   7   6  303.10   82.95
  -3   7   7  211.45   78.62
  -3   7   8    4.64   79.23
  -3   7   9    0.00   96.41
  -3   7  10  -44.39   95.90
  -3   7  11 -103.55  136.85
  -3   8   1 3055.31   95.61
  -3   8   2 1758.92   94.66
  -3   8   3  577.05   53.45
  -3   8   4 2000.80  120.31
  -3   8   5  797.12   92.94
  -3   8   6  444.59   93.56
  -3   8   7  302.70   93.76
  -3   8   8  172.59  133.33
  -3   8   9   53.60   97.62
  -3   8  10 -117.99  143.64
  -3   9   1 2206.40   95.41
  -3   9   2 1686.26   96.29
  -3   9   3 2578.78  125.75
  -3   9   4 1526.78  111.95
  -3   9   5 1074.49  104.47
  -3   9   6  400.13   99.22
  -3   9   7  628.57  152.77
  -3   9   8  343.56  118.56
  -3   9   9  163.00  110.70
  -3  10   1 3023.84  117.82
  -3  10   2 2993.08  114.73
  -3  10   3 1989.49  137.56
  -3  10   4 1633.93  124.62
  -3  10   5  968.14  104.06
  -3  10   6 1246.76  141.33
  -3  10   7  727.81  170.36
  -3  10   8  312.55  113.19
  -3  11   1 4096.84  145.80
  -3  11   2 3333.28  157.57
  -3  11   3 2581.01  133.37
  -3  11   4 1866.37  143.91
  -3  11   5 2166.87  149.42
  -3  11   6 1157.34  127.73
  -3  11   7  444.15  130.26
  -3  12   1 3296.14  136.52
  -3  12   2 2904.79  161.97
  -3  12   3 2587.64  152.72
  -3  12   4 2497.04  153.03
  -3  12   5 2168.39  168.04
  -3  12   6  886.89  133.88
  -3  13   1 3234.59  170.07
  -3  13   2 2912.67  188.18
  -3  13   3 2568.83  309.94
  -3  13   4 2624.86  206.14
  -3  14   1 3595.35  216.22
  -3  14   2 2772.36  158.70
  -3  14   3 2680.94  414.04
  -3  15   1 2008.84  179.69
  -2 -15   4  392.65   52.56
  -2 -15   5  322.01   57.48
  -2 -15   6  515.68  183.22
  -2 -15   7  465.09  202.10
  -2 -15   8  339.83  196.68
  -2 -15   9  101.00   44.46
  -2 -15  10   42.92   58.54
  -2 -15  11  -68.68   69.78
  -2 -15  12   13.78   93.90
  -2 -15  13 -164.15  164.15
  -2 -14   2 1588.23  169.33
  -2 -14   3 1695.72  121.02
  -2 -14   4  629.83   76.33
  -2 -14   5 1549.58  111.90
  -2 -14   6  936.16   79.43
  -2 -14   7  550.68   64.53
  -2 -14   8  617.12   75.45
  -2 -14   9  299.62   75.19
  -2 -14  10  171.94   73.82
  -2 -14  11  193.92   90.32
  -2 -14  12   84.70   68.43
  -2 -14  13  -33.25   64.54
  -2 -14  14  -71.32   75.06
  -2 -14  15 -137.94  138.38
  -2 -13   1 2345.19  231.06
  -2 -13   2 2954.52  177.61
  -2 -13   3 1079.33  106.68
  -2 -13   4 2737.20  154.58
  -2 -13   5 1414.51  106.48
  -2 -13   6 1138.62   98.27
  -2 -13   7 1251.99  119.59
  -2 -13   8 1383.99  125.27
  -2 -13   9  989.88  103.53
  -2 -13  10  390.36   66.31
  -2 -13  11  223.38   61.92
  -2 -13  12  386.09  111.76
  -2 -13  13  281.48  104.31
  -2 -13  14  197.82   90.26
  -2 -13  15  -87.44   92.60
  -2 -13  16  -10.88  115.84
  -2 -12   1 5010.79  223.84
  -2 -12   2 3188.52  143.11
  -2 -12   3 4252.75  206.51
  -2 -12   4 2402.81  210.74
  -2 -12   5 2757.63  145.28
  -2 -12   6 3344.39  188.13
  -2 -12   7 3872.15  173.20
  -2 -12   8 3311.16  166.28
  -2 -12   9 1968.49  111.00
  -2 -12  10 1496.24  130.03
  -2 -12  11 1129.75  123.75
  -2 -12  12  763.05  104.89
  -2 -12  13  768.49  125.84
  -2 -12  14  572.71  113.50
  -2 -12  15  206.80  105.25
  -2 -12  16   98.10  103.91
  -2 -11   1 3609.60  153.98
  -2 -11   2 2608.64  107.17
  -2 -11   3  954.86   61.47
  -2 -11   4  879.43   58.98
  -2 -11   5 1449.36   88.19
  -2 -11   6 1901.57   95.82
  -2 -11   7 1270.26  108.58
  -2 -11   8  903.79   87.49
  -2 -11   9  745.56   79.66
  -2 -11  10  462.67   90.05
  -2 -11  11  122.04   65.65
  -2 -11  12  446.01   87.50
  -2 -11  13  256.93   90.73
  -2 -11  14  396.43  103.95
  -2 -11  15   98.44   94.98
  -2 -11  16  111.14  103.70
  -2 -11  17  134.39  126.35
  -2 -10   1 2674.28  142.31
  -2 -10   2 2078.47  101.89
  -2 -10   3 1945.69   91.29
  -2 -10   4 2380.66  113.72
  -2 -10   5 3392.99  134.24
  -2 -10   6 3611.13  152.25
  -2 -10   7 1685.57  102.36
  -2 -10   8 2189.57  150.80
  -2 -10   9 1337.32  114.24
  -2 -10  10  932.26   99.59
  -2 -10  11  862.97  105.77
  -2 -10  12  899.28  115.06
  -2 -10  13 1224.64  139.12
  -2 -10  14  470.74  100.57
  -2 -10  15   83.37   87.95
  -2 -10  16  102.69   88.18
  -2 -10  17  396.02  138.53
  -2  -9   1 3936.75  119.58
  -2  -9   2 4046.23  187.34
  -2  -9   3 4845.46  144.25
  -2  -9   4 4085.62  129.35
  -2  -9   5 5272.01  150.72
  -2  -9   6 2809.47  112.89
  -2  -9   7 3108.12  158.81
  -2  -9   8 2407.85  123.14
  -2  -9   9 2132.35  123.45
  -2  -9  10 1781.71  163.86
  -2  -9  11 2169.54  150.36
  -2  -9  12 2644.52  188.18
  -2  -9  13 1100.26  119.51
  -2  -9  14  460.32  116.74
  -2  -9  15  110.81   84.88
  -2  -9  16  188.14  111.08
  -2  -9  17  471.37  143.66
  -2  -8   1 6093.99  206.72
  -2  -8   2 6746.04  178.64
  -2  -8   3 5740.51  169.77
  -2  -8   4 5967.43  165.05
  -2  -8   5 5696.67  174.61
  -2  -8   6 4573.98  182.71
  -2  -8   7 3054.75  131.38
  -2  -8   8 4024.42  156.36
  -2  -8   9 2948.10  147.32
  -2  -8  10 3649.93  174.18
  -2  -8  11 4396.63  227.92
  -2  -8  12 2337.01  149.20
  -2  -8  13 1082.31  127.37
  -2  -8  14 1077.36  130.89
  -2  -8  15  376.91  131.44
  -2  -8  16  447.13  163.42
  -2  -8  17 1092.26  181.20
  -2  -7   110284.90  227.72
  -2  -7   2 8918.81  201.69
  -2  -7   3 9324.78  206.34
  -2  -7   410972.70  246.39
  -2  -7   5 8236.25  242.94
  -2  -7   6 7075.55  185.25
  -2  -7   7 5525.87  167.55
  -2  -7   8 5996.95  207.23
  -2  -7   9 7300.97  228.41
  -2  -7  10 5823.03  247.53
  -2  -7  11 4869.29  200.62
  -2  -7  12 2543.56  169.97
  -2  -7  13 2020.02  193.22
  -2  -7  14 1578.27  158.45
  -2  -7  15  532.14  152.63
  -2  -7  16 1139.91  157.72
  -2  -7  17 1630.01  207.39
  -2  -6   110920.90  225.38
  -2  -6   211135.80  242.71
  -2  -6   316758.00  322.98
  -2  -6   4 8897.80  198.74
  -2  -6   512291.70  382.49
  -2  -6   6 9927.94  245.47
  -2  -6   7 7183.26  198.02
  -2  -6   810771.70  311.57
  -2  -6   9 6390.02  226.53
  -2  -6  10 7079.30  262.16
  -2  -6  11 5406.23  219.49
  -2  -6  12 3613.52  199.26
  -2  -6  13 3204.68  197.06
  -2  -6  14 2562.26  262.39
  -2  -6  15 1586.27  247.58
  -2  -6  16 1838.59  239.21
  -2  -6  17 1203.96  190.12
  -2  -5   114320.50  385.18
  -2  -5   220535.00  379.50
  -2  -5   315784.40  302.32
  -2  -5   416628.20  335.58
  -2  -5   514707.50  347.78
  -2  -5   614423.90  329.96
  -2  -5   7 8264.91  217.37
  -2  -5   8 7589.05  266.44
  -2  -5   9 7803.46  252.07
  -2  -5  10 7009.10  263.54
  -2  -5  11 6989.46  258.27
  -2  -5  12 5101.73  230.89
  -2  -5  13 3251.22  252.47
  -2  -5  14 3704.17  252.69
  -2  -5  15 2931.54  398.97
  -2  -5  16 1933.67  183.06
  -2  -5  17 1063.62  273.39
  -2  -4   1 9331.74  193.15
  -2  -4   2 9878.21  200.59
  -2  -4   311582.90  241.66
  -2  -4   411070.80  268.29
  -2  -4   511548.10  263.58
  -2  -4   6 7234.34  190.35
  -2  -4   7 2737.75  120.16
  -2  -4   8 5677.94  211.82
  -2  -4   9 6288.32  221.08
  -2  -4  10 6169.78  248.51
  -2  -4  11 7256.36  263.08
  -2  -4  12 3803.78  200.73
  -2  -4  13 3880.96  206.59
  -2  -4  14 3610.09  250.85
  -2  -4  15 2080.54  226.57
  -2  -4  16 1193.24  194.03
  -2  -4  17  833.68  236.36
  -2  -3   116165.00  299.21
  -2  -3   220096.90  363.86
  -2  -3   318522.20  379.69
  -2  -3   420476.30  418.63
  -2  -3   511726.80  267.68
  -2  -3   6 9009.08  238.93
  -2  -3   7 3632.44  162.28
  -2  -3   810026.30  316.11
  -2  -3   9 7880.41  257.11
  -2  -3  10 7738.61  288.74
  -2  -3  11 7740.62  268.93
  -2  -3  12 5643.47  247.17
  -2  -3  13 3144.01  204.49
  -2  -3  14 3570.47  255.93
  -2  -3  15 1746.93  197.75
  -2  -3  16 1096.92  194.95
  -2  -3  17  699.32  207.09
  -2  -2   122966.60  385.50
  -2  -2   215961.50  325.85
  -2  -2   325210.30  496.95
  -2  -2   411743.10  257.74
  -2  -2   514969.20  360.51
  -2  -2   611149.60  267.27
  -2  -2   7 8435.55  331.35
  -2  -2   810966.50  379.73
  -2  -2   910288.90  341.49
  -2  -2  10 9384.15  316.83
  -2  -2  11 9637.95  366.97
  -2  -2  12 4451.06  229.03
  -2  -2  13 3735.44  217.26
  -2  -2  14 4236.48  280.07
  -2  -2  15 2207.30  203.04
  -2  -2  16 1395.80  189.26
  -2  -1   126346.60  480.11
  -2  -1   223966.80  467.75
  -2  -1   317039.10  346.18
  -2  -1   426021.30  711.10
  -2  -1   518576.00  406.18
  -2  -1   616783.90  410.44
  -2  -1   710605.50  528.53
  -2  -1   812914.40  390.87
  -2  -1   914195.60  388.16
  -2  -1  10 8961.70  345.15
  -2  -1  11 6321.81  256.79
  -2  -1  12 5074.80  243.14
  -2  -1  13 4684.72  247.48
  -2  -1  14 4534.07  286.10
  -2  -1  15 2375.40  214.13
  -2  -1  16 1903.31  298.48
  -2   0   1 5805.62  124.42
  -2   0   210113.50  229.44
  -2   0   320589.70  438.68
  -2   0   417808.60  417.12
  -2   0   517056.50  469.31
  -2   0   616830.20  452.23
  -2   0   7 5898.84  337.81
  -2   0   812500.30  426.94
  -2   0   9 7299.76  257.59
  -2   0  10 4757.52  210.83
  -2   0  11 5437.24  236.41
  -2   0  12 4739.45  236.22
  -2   0  13 4300.58  333.52
  -2   0  14 3319.91  361.08
  -2   0  15 2545.64  236.50
  -2   1   126981.60  550.53
  -2   1   218872.80  431.51
  -2   1   321549.00  488.66
  -2   1   421004.90  484.32
  -2   1   521907.90  472.36
  -2   1   617608.00  547.65
  -2   1   710500.80  304.29
  -2   1   8 7687.64  255.22
  -2   1   9 6832.28  283.89
  -2   1  10 5062.54  228.68
  -2   1  11 5725.63  248.09
  -2   1  12 5315.27  254.98
  -2   1  13 4306.91  353.58
  -2   1  14 3789.71  249.80
  -2   1  15 2606.16  344.42
  -2   2   114915.00  415.80
  -2   2   226738.90 1054.22
  -2   2   326137.40  540.07
  -2   2   422246.50  524.16
  -2   2   519994.00  468.37
  -2   2   613766.60  354.87
  -2   2   7 7511.50  349.99
  -2   2   8 8559.97  281.64
  -2   2   9 6679.71  252.79
  -2   2  10 5337.73  229.46
  -2   2  11 6751.17  285.98
  -2   2  12 6052.99  270.45
  -2   2  13 3730.78  260.11
  -2   2  14 4670.27  356.64
  -2   3   117861.40  516.62
  -2   3   225837.30  572.66
  -2   3   324183.40  502.98
  -2   3   423376.80  530.25
  -2   3   510350.50  272.97
  -2   3   614816.90  388.79
  -2   3   7 8928.18  377.73
  -2   3   8 8404.23  275.22
  -2   3   9 7298.55  260.84
  -2   3  10 6845.20  262.35
  -2   3  11 7510.92  327.31
  -2   3  12 4254.51  314.39
  -2   3  13 4734.39  304.48
  -2   3  14 4222.29  408.17
  -2   4   122221.90  452.97
  -2   4   222593.70  467.72
  -2   4   324800.00  481.95
  -2   4   4 9933.57  230.57
  -2   4   516228.30  378.21
  -2   4   614761.50  415.99
  -2   4   7 9567.99  297.53
  -2   4   8 9279.85  293.19
  -2   4   9 8396.97  286.59
  -2   4  10 7271.61  299.68
  -2   4  11 5131.45  301.57
  -2   4  12 6053.74  407.15
  -2   4  13 4271.91  257.87
  -2   5   122638.30  440.79
  -2   5   220490.00  428.56
  -2   5   310163.70  273.98
  -2   5   415798.10  400.72
  -2   5   514657.60  389.58
  -2   5   613173.80  330.99
  -2   5   711668.90  312.22
  -2   5   8 8778.97  278.57
  -2   5   9 7560.18  304.51
  -2   5  10 5780.51  266.44
  -2   5  11 5703.31  296.12
  -2   5  12 4347.93  358.17
  -2   6   116592.20  336.28
  -2   6   211705.80  279.72
  -2   6   312596.40  327.12
  -2   6   412157.20  329.64
  -2   6   511614.90  445.41
  -2   6   614266.30  499.89
  -2   6   7 9235.28  313.74
  -2   6   8 7009.52  269.68
  -2   6   9 7410.16  366.10
  -2   6  10 4512.14  265.03
  -2   6  11 3500.64  286.63
  -2   6  12 3005.60  292.25
  -2   7   1 7362.18  196.05
  -2   7   2 5382.95  147.67
  -2   7   3 5901.06  286.99
  -2   7   4 6841.12  350.45
  -2   7   5 8874.46  278.57
  -2   7   6 8495.80  303.99
  -2   7   7 5969.79  245.58
  -2   7   8 7397.18  283.20
  -2   7   9 3309.92  260.22
  -2   7  10 3093.57  332.19
  -2   7  11 2817.76  274.31
  -2   8   1 6615.24  173.83
  -2   8   2 6194.84  198.98
  -2   8   3 6237.01  230.40
  -2   8   4 7003.88  243.87
  -2   8   5 7218.59  326.55
  -2   8   6 7419.40  267.05
  -2   8   7 7794.37  299.33
  -2   8   8 3879.39  238.95
  -2   8   9 2518.75  225.66
  -2   8  10 2588.62  446.87
  -2   9   1 5456.07  209.72
  -2   9   2 5255.26  190.52
  -2   9   3 4815.05  197.16
  -2   9   4 5957.07  237.43
  -2   9   5 6458.51  255.79
  -2   9   6 7196.24  270.58
  -2   9   7 4036.81  313.73
  -2   9   8 3189.12  204.06
  -2   9   9 2892.62  281.90
  -2  10   1 4530.17  148.26
  -2  10   2 3872.32  157.48
  -2  10   3 4741.47  179.47
  -2  10   4 5698.09  220.41
  -2  10   5 4725.56  208.19
  -2  10   6 5199.32  341.78
  -2  10   7 3764.50  292.40
  -2  10   8 2974.63  332.56
  -2  11   1 3465.15  138.24
  -2  11   2 3813.52  188.79
  -2  11   3 4641.80  200.74
  -2  11   4 2640.76  151.19
  -2  11   5 4116.19  284.38
  -2  11   6 3679.38  253.27
  -2  11   7 2377.22  448.09
  -2  12   1 3090.49  156.23
  -2  12   2 3188.08  253.24
  -2  12   3 1781.20  124.13
  -2  12   4 3062.62  184.90
  -2  12   5 3285.69  203.88
  -2  13   1 2099.61  180.41
  -2  13   2 1259.92  140.78
  -2  13   3 2130.41  251.22
  -2  13   4 2650.77  178.72
  -2  14   1 1410.28  203.94
  -2  14   2 1345.62  135.12
  -2  15   1  886.55  142.19
  -1 -16   5 2853.98  312.73
  -1 -16   6 3961.83  476.69
  -1 -16   7 2718.97  493.90
  -1 -16   8 2996.17  419.39
  -1 -16   9 3970.74  380.34
  -1 -16  10 3371.55  443.79
  -1 -16  11 3367.81  377.93
  -1 -16  12 2695.18  371.24
  -1 -15   2 3442.25  287.81
  -1 -15   3 4552.10  226.60
  -1 -15   4 3525.02  452.27
  -1 -15   5 4311.01  358.03
  -1 -15   6 4176.41  389.09
  -1 -15   7 5116.93  441.60
  -1 -15   8 5587.45  497.11
  -1 -15   9 5151.61  398.76
  -1 -15  10 4267.05  372.34
  -1 -15  11 4150.33  305.29
  -1 -15  12 3962.69  236.23
  -1 -15  13 4478.82  275.44
  -1 -15  14 3343.32  427.11
  -1 -14   1 3249.24  204.50
  -1 -14   2 5151.85  380.70
  -1 -14   3 4124.32  166.15
  -1 -14   4 4430.28  345.46
  -1 -14   5 4885.74  401.34
  -1 -14   6 6392.32  465.93
  -1 -14   7 5360.89  368.86
  -1 -14   8 5488.01  386.76
  -1 -14   9 4590.76  365.75
  -1 -14  10 4111.81  194.30
  -1 -14  11 4810.69  237.30
  -1 -14  12 5629.61  370.58
  -1 -14  13 4465.89  235.06
  -1 -14  14 4999.51  312.64
  -1 -14  15 4086.34  410.15
  -1 -13   1 4586.51  260.87
  -1 -13   2 5237.49  278.50
  -1 -13   3 4273.12  209.53
  -1 -13   4 5560.81  288.99
  -1 -13   5 5876.27  789.78
  -1 -13   6 5632.09  426.92
  -1 -13   7 6596.53  398.87
  -1 -13   8 4769.72  221.97
  -1 -13   9 5239.46  222.33
  -1 -13  10 5717.44  322.46
  -1 -13  11 5610.88  342.91
  -1 -13  12 5998.88  308.11
  -1 -13  13 7663.41  398.34
  -1 -13  14 4989.48  237.69
  -1 -13  15 5483.62  270.82
  -1 -13  16 3034.30  193.58
  -1 -12   1 5681.46  190.13
  -1 -12   2 4466.37  228.98
  -1 -12   3 7324.63  376.28
  -1 -12   4 7494.14  305.37
  -1 -12   5 7019.10  501.71
  -1 -12   6 8205.46  295.01
  -1 -12   7 7675.81  302.89
  -1 -12   8 6705.19  294.54
  -1 -12   9 8165.74  313.74
  -1 -12  10 6978.17  304.55
  -1 -12  11 7207.77  285.46
  -1 -12  12 8006.96  416.43
  -1 -12  13 6826.98  324.49
  -1 -12  14 5654.01  232.01
  -1 -12  15 4525.21  271.20
  -1 -12  16 3374.24  224.38
  -1 -11   1 1057.37  104.14
  -1 -11   2 2212.45  223.01
  -1 -11   3 1962.20  110.84
  -1 -11   4 2152.47  152.77
  -1 -11   5 2520.34  123.65
  -1 -11   6 3033.89  125.78
  -1 -11   7 3079.80  143.54
  -1 -11   8 1906.54  224.68
  -1 -11   9 2802.98  141.21
  -1 -11  10 3430.12  172.41
  -1 -11  11 2992.22  186.87
  -1 -11  12 4502.08  210.28
  -1 -11  13 3601.80  168.84
  -1 -11  14 2833.25  169.96
  -1 -11  15 4029.56  257.67
  -1 -11  16 2828.66  234.32
  -1 -11  17 2380.14  222.22
  -1 -10   1 3140.29  128.80
  -1 -10   2 2793.07  144.74
  -1 -10   3 3774.66  179.60
  -1 -10   4 4435.02  245.75
  -1 -10   5 6339.70  196.25
  -1 -10   6 7250.64  217.85
  -1 -10   7 5680.37  176.48
  -1 -10   8 4165.55  138.46
  -1 -10   9 4903.56  189.13
  -1 -10  10 3852.21  249.21
  -1 -10  11 4836.21  170.02
  -1 -10  12 3950.58  172.04
  -1 -10  13 3948.53  189.96
  -1 -10  14 4321.58  208.10
  -1 -10  15 4988.90  290.89
  -1 -10  16 3502.20  247.04
  -1 -10  17 2956.57  264.71
  -1  -9   1 2388.44  117.44
  -1  -9   2 3112.21  145.16
  -1  -9   3 3856.07  134.53
  -1  -9   4 7130.14  209.97
  -1  -9   5 8600.26  236.02
  -1  -9   6 7643.41  209.76
  -1  -9   7 6770.00  186.62
  -1  -9   8 4795.03  172.96
  -1  -9   9 5392.43  237.03
  -1  -9  10 4597.13  165.62
  -1  -9  11 3109.08  153.48
  -1  -9  12 5993.31  229.28
  -1  -9  13 6051.19  241.46
  -1  -9  14 5178.86  259.35
  -1  -9  15 5671.69  344.08
  -1  -9  16 3587.58  226.69
  -1  -9  17 3366.29  268.25
  -1  -8   1 2608.65  196.62
  -1  -8   2 3295.64  279.16
  -1  -8   3 6263.39  173.33
  -1  -8   4 7599.28  208.94
  -1  -8   5 7547.57  185.39
  -1  -8   6 6968.98  180.35
  -1  -8   7 7864.19  250.77
  -1  -8   8 6070.48  180.67
  -1  -8   9 3804.67  131.76
  -1  -8  10 3914.19  157.60
  -1  -8  11 5662.18  209.87
  -1  -8  12 7713.65  282.60
  -1  -8  13 6329.25  256.37
  -1  -8  14 5856.04  271.79
  -1  -8  15 4853.15  267.55
  -1  -8  16 3903.24  234.10
  -1  -8  17 2979.52  268.00
  -1  -7   1 5163.00  337.10
  -1  -7   2 4803.21  126.73
  -1  -7   3 6403.93  141.72
  -1  -7   4 6026.19  151.99
  -1  -7   5 5799.73  180.51
  -1  -7   6 6361.33  187.83
  -1  -7   713281.50  326.49
  -1  -7   8 1756.29   88.22
  -1  -7   9 4322.59  165.82
  -1  -7  10 7652.25  251.26
  -1  -7  11 5760.81  213.13
  -1  -7  12 6526.16  249.68
  -1  -7  13 6797.49  316.62
  -1  -7  14 3510.00  202.71
  -1  -7  15 5322.69  338.29
  -1  -7  16 3278.58  230.49
  -1  -7  17 2737.14  260.14
  -1  -6   1 4474.72  356.45
  -1  -6   2 4146.44  108.68
  -1  -6   3 3677.16   95.68
  -1  -6   4 2810.06   94.96
  -1  -6   5 3288.08  127.02
  -1  -6   610652.70  267.36
  -1  -6   7 4268.69  136.59
  -1  -6   8 5607.91  186.07
  -1  -6   9 8719.02  265.03
  -1  -6  10 7279.52  243.98
  -1  -6  11 3877.52  170.22
  -1  -6  12 7047.30  303.54
  -1  -6  13 3735.98  199.71
  -1  -6  14 3302.45  251.03
  -1  -6  15 4069.67  299.60
  -1  -6  16 3859.81  295.00
  -1  -6  17 3197.49  283.81
  -1  -5   1 1424.58   99.06
  -1  -5   2 1014.38   49.14
  -1  -5   3 1129.26   54.71
  -1  -5   4  593.92   47.47
  -1  -5   5 4269.81  139.08
  -1  -5   6 2396.43  109.19
  -1  -5   716084.60  403.49
  -1  -5   8 7822.35  231.96
  -1  -5   9 5201.59  186.84
  -1  -5  10 5256.57  201.96
  -1  -5  11 4150.01  206.69
  -1  -5  12 3756.93  201.26
  -1  -5  13 3294.99  219.26
  -1  -5  14 2331.07  216.91
  -1  -5  15 4617.59  521.78
  -1  -5  16 3685.94  259.37
  -1  -5  17 2691.23  285.80
  -1  -4   1  121.33   22.03
  -1  -4   2   36.09   18.97
  -1  -4   3   73.30   20.65
  -1  -4   4   50.80   22.30
  -1  -4   5 2610.81  156.28
  -1  -4   610068.60  262.75
  -1  -4   713333.00  338.13
  -1  -4   8 3804.62  138.91
  -1  -4   9 3667.23  149.35
  -1  -4  10 4079.98  197.94
  -1  -4  11 2710.16  167.48
  -1  -4  12 2063.23  162.41
  -1  -4  13 2365.18  211.59
  -1  -4  14 2874.08  237.62
  -1  -4  15 4312.99  434.15
  -1  -4  16 2884.77  261.96
  -1  -4  17 1908.60  261.01
  -1  -3   1   83.44   26.60
  -1  -3   2  461.35   31.90
  -1  -3   3 3241.40   89.54
  -1  -3   4 8570.36  189.15
  -1  -3   510158.30  279.65
  -1  -3   6 5928.45  171.69
  -1  -3   710190.70  272.14
  -1  -3   8 3202.42  153.43
  -1  -3   9 2474.26  142.10
  -1  -3  10 4678.69  208.90
  -1  -3  11  801.42  112.63
  -1  -3  12 2888.16  190.46
  -1  -3  13 3451.92  218.49
  -1  -3  14 2491.65  228.90
  -1  -3  15 3176.70  234.50
  -1  -3  16 2210.08  218.13
  -1  -2   1  255.63   23.63
  -1  -2   2 4718.99  109.87
  -1  -2   325600.30  490.32
  -1  -2   4 3739.14  104.00
  -1  -2   5 3406.81  131.09
  -1  -2   6 4172.27  142.91
  -1  -2   7 7029.11  225.67
  -1  -2   8 1804.82  117.82
  -1  -2   9 4047.49  180.75
  -1  -2  10 2172.51  177.49
  -1  -2  11 2772.42  177.55
  -1  -2  12 3257.64  196.18
  -1  -2  13 2688.97  204.82
  -1  -2  14 2126.16  242.19
  -1  -2  15 1797.04  202.53
  -1  -2  16 2058.89  247.09
  -1  -1   1   38.70   12.31
  -1  -1   2 6902.05  165.47
  -1  -1   3 5230.70  126.52
  -1  -1   4 2904.04   97.68
  -1  -1   5 4041.02  131.06
  -1  -1   7 4168.88  164.28
  -1  -1   8 1765.85  121.93
  -1  -1   9 2540.13  163.02
  -1  -1  10 4321.55  205.11
  -1  -1  11 2414.42  171.10
  -1  -1  12 1685.73  159.72
  -1  -1  13 2163.41  186.32
  -1  -1  14 1146.22  173.56
  -1  -1  15 1274.98  167.33
  -1  -1  16 1902.92  285.62
  -1   0   1  802.43   29.52
  -1   0   2 1713.30  226.27
  -1   0   3 6729.50  175.68
  -1   0   4 4644.53  153.24
  -1   0   5 3323.80  155.42
  -1   0   6 2847.37  135.17
  -1   0   7  127.81   54.41
  -1   0   8  936.32   98.51
  -1   0   9 1628.87  133.57
  -1   0  10 2206.23  185.06
  -1   0  11  646.41  106.83
  -1   0  12 1022.77  155.76
  -1   0  13  788.42  147.89
  -1   0  14  392.16  113.99
  -1   0  15 1625.27  191.53
  -1   1   1    7.53    9.17
  -1   1   2   74.70   16.62
  -1   1   3  282.84   20.95
  -1   1   4 1481.70   74.91
  -1   1   5 1302.54   83.54
  -1   1   6 2987.97  147.60
  -1   1   7 3999.45  168.79
  -1   1   8 1787.42  132.37
  -1   1   9 1661.32  149.92
  -1   1  10 1400.68  136.45
  -1   1  11  715.42  116.73
  -1   1  12  685.04  117.29
  -1   1  13  210.02  145.29
  -1   1  14  876.30  162.93
  -1   1  15  329.88  110.27
  -1   2   1  217.99   38.95
  -1   2   2   82.38   23.42
  -1   2   3   28.26   18.09
  -1   2   4 1039.01   63.13
  -1   2   5 3675.58  126.70
  -1   2   6  777.99   73.86
  -1   2   7 1838.38  112.09
  -1   2   8 1164.98  131.49
  -1   2   9 2011.02  151.84
  -1   2  10  556.92  100.89
  -1   2  11  252.94  108.69
  -1   2  12  177.00  107.01
  -1   2  13  810.95  133.96
  -1   2  14  258.11   85.38
  -1   3   1 1848.34  169.59
  -1   3   2   86.97   17.15
  -1   3   3  158.94   34.20
  -1   3   4 1802.95   79.12
  -1   3   5  177.33   61.09
  -1   3   6   33.51   39.73
  -1   3   7  707.38   82.36
  -1   3   8 2066.94  134.24
  -1   3   9  230.04   80.41
  -1   3  10  405.99  133.60
  -1   3  11  362.11  108.36
  -1   3  12  426.73  159.56
  -1   3  13  298.20   84.62
  -1   4   1  493.67   30.36
  -1   4   2  297.22   42.12
  -1   4   3 1486.16   81.25
  -1   4   4  161.58  100.84
  -1   4   5  157.00   93.49
  -1   4   6  138.09   56.49
  -1   4   7 1347.69   99.46
  -1   4   8   43.58   56.33
  -1   4   9  245.07   74.89
  -1   4  10  356.22   96.70
  -1   4  11  -57.01   94.24
  -1   4  12  123.18   49.37
  -1   4  13  359.85   87.58
  -1   5   1 1277.66   77.05
  -1   5   2 2608.84  106.54
  -1   5   3 1763.69  106.57
  -1   5   5  566.78  171.15
  -1   5   6  247.48   66.16
  -1   5   7  -38.06   65.34
  -1   5   8   21.31   44.69
  -1   5   9  274.89   71.24
  -1   5  10  -21.08   86.48
  -1   5  11   25.33   21.48
  -1   5  12  133.17   79.73
  -1   6   1 4185.44  120.36
  -1   6   2 3222.55  120.54
  -1   6   3 2204.65  110.92
  -1   6   4 2353.02  243.52
  -1   6   5 2166.34  148.15
  -1   6   6  611.92   90.43
  -1   6   7   96.78   70.73
  -1   6   8   74.46   79.39
  -1   6   9  104.81   90.52
  -1   6  10   -0.01    0.49
  -1   6  11   11.68   20.88
  -1   7   1 7711.76  204.57
  -1   7   2 5333.65  188.45
  -1   7   3 3768.17  151.40
  -1   7   4 5189.08  194.96
  -1   7   5 1607.24  127.01
  -1   7   6 1515.37  130.40
  -1   7   7  492.35   96.86
  -1   7   8  202.22  105.44
  -1   7   9   80.01   64.40
  -1   7  10    4.19   41.86
  -1   8   1 4300.05  122.57
  -1   8   2 3341.39  143.19
  -1   8   3 4391.06  165.92
  -1   8   4 1133.29   99.66
  -1   8   5 1374.93  120.30
  -1   8   6 1683.21  138.63
  -1   8   7  215.09   91.21
  -1   8   8  187.42  103.47
  -1   8   9  -83.44   83.44
  -1   9   1 4720.38  163.59
  -1   9   2 4297.41  164.75
  -1   9   3 1700.47  113.34
  -1   9   4 2082.75  133.87
  -1   9   5 1769.98  132.45
  -1   9   6  347.12   86.65
  -1   9   7  426.67  110.11
  -1   9   8  233.64  111.06
  -1  10   1 3481.47  158.59
  -1  10   2 2828.71  138.34
  -1  10   3 2768.54  144.51
  -1  10   4 2388.61  146.97
  -1  10   5  637.90   93.46
  -1  10   6  945.92  130.55
  -1  10   7  633.30  166.07
  -1  11   1 4253.05  166.16
  -1  11   2 3867.72  192.29
  -1  11   3 2833.63  151.94
  -1  11   4 1612.15  135.64
  -1  11   5 1573.22  196.58
  -1  11   6 1436.32  149.06
  -1  12   1 3923.67  187.91
  -1  12   2 2342.18  154.52
  -1  12   3 2107.64  143.62
  -1  12   4 1402.86  126.03
  -1  12   5 1308.47  162.89
  -1  13   1 2411.25  188.48
  -1  13   2 2990.20  221.22
  -1  13   3 1998.33  217.16
  -1  14   1 3822.08  287.20
  -1  14   2 2391.40  194.31
   0 -17   8  -55.36  196.49
   0 -17   9  -53.55  289.14
   0 -16   4  939.64  197.28
   0 -16   5  330.17  175.37
   0 -16   6  179.49  218.22
   0 -16   7  160.41  193.93
   0 -16   8  -53.39  191.86
   0 -16   9  113.73  318.55
   0 -16  10  173.44  247.53
   0 -16  11   56.87  194.41
   0 -16  12   21.82   61.08
   0 -16  13  -61.08   71.99
   0 -15   1  362.46   60.88
   0 -15   2  536.69  103.71
   0 -15   3  887.99  188.21
   0 -15   4  706.64  195.31
   0 -15   5  386.45  244.06
   0 -15   6  -73.52  145.12
   0 -15   7 -109.01  157.75
   0 -15   8  100.08  156.19
   0 -15   9  -60.28  139.06
   0 -15  10  144.24  174.21
   0 -15  11  161.26   55.70
   0 -15  12  -34.04   75.55
   0 -15  13  -41.94   41.94
   0 -15  14  -86.53   86.53
   0 -14   1  942.82  109.44
   0 -14   2 1108.73  148.52
   0 -14   3 1368.33  188.63
   0 -14   4 1345.39  250.02
   0 -14   5 1127.07  202.85
   0 -14   6  517.08  234.09
   0 -14   7  259.90  158.03
   0 -14   8   45.46  148.35
   0 -14   9  208.71  217.32
   0 -14  10  441.02   63.62
   0 -14  11  290.44   82.98
   0 -14  12   51.95   33.38
   0 -14  13  -61.62   61.62
   0 -14  14  -84.25   95.35
   0 -14  15   -0.98    0.98
   0 -13   1 1301.45  106.25
   0 -13   2 1685.24  106.59
   0 -13   3 2005.40  227.53
   0 -13   4 1677.16  217.28
   0 -13   5 1136.50  207.52
   0 -13   6 1143.21  201.05
   0 -13   7  401.39  160.90
   0 -13   8  309.41  147.82
   0 -13   9  878.63   82.16
   0 -13  10  611.74  117.10
   0 -13  11  263.87   38.24
   0 -13  12  298.30   68.12
   0 -13  13   50.51   89.54
   0 -13  14  -46.76   63.75
   0 -13  15  -93.88   93.88
   0 -13  16  -66.48   98.78
   0 -12   1 1916.69  122.77
   0 -12   2 2355.75  129.71
   0 -12   3 2587.81  291.49
   0 -12   4 1746.28  184.31
   0 -12   5 2843.64  237.21
   0 -12   6 1442.11  174.59
   0 -12   7 2031.66  202.69
   0 -12   8 1323.93  111.49
   0 -12   9 1701.57  127.17
   0 -12  10  508.50   68.57
   0 -12  11  843.62   74.72
   0 -12  12  258.64   64.55
   0 -12  13  161.76   67.50
   0 -12  14   33.69   41.01
   0 -12  15  -44.52  107.65
   0 -12  16  -81.55  105.68
   0 -12  17  -51.94  136.24
   0 -11   1 5052.13  157.84
   0 -11   2 5961.63  201.15
   0 -11   3 5925.19  210.40
   0 -11   4 7950.47  357.14
   0 -11   5 6997.10  281.84
   0 -11   6 8252.05  338.76
   0 -11   7 8439.93  285.21
   0 -11   8 5633.27  366.26
   0 -11   9 3140.49  130.49
   0 -11  10 2972.61  144.45
   0 -11  11 2078.44  151.69
   0 -11  12 1455.42  119.57
   0 -11  13  488.62   91.09
   0 -11  14  406.31  109.41
   0 -11  15  584.74  151.13
   0 -11  16  265.46  117.07
   0 -11  17   37.13  131.56
   0 -10   1 2831.39  140.88
   0 -10   2 3357.58  133.53
   0 -10   3 4962.30  186.69
   0 -10   4 4958.00  238.61
   0 -10   5 7817.58  298.94
   0 -10   6 7392.73  219.69
   0 -10   7 7175.03  228.02
   0 -10   8 1617.20  126.60
   0 -10   9 1544.49  112.40
   0 -10  10 2703.59  140.11
   0 -10  11 1061.62   79.32
   0 -10  12  747.35   95.85
   0 -10  13 1034.52  128.13
   0 -10  14  589.16  131.78
   0 -10  15  984.13  167.97
   0 -10  16  282.35  108.47
   0 -10  17  -15.98  127.50
   0  -9   1 3583.31  120.53
   0  -9   2 4783.29  231.31
   0  -9   3 8229.14  340.85
   0  -9   410661.00  327.13
   0  -9   510759.70  288.00
   0  -9   610586.70  294.75
   0  -9   7 5211.45  134.69
   0  -9   8 1482.79  123.64
   0  -9   9 4242.66  142.27
   0  -9  10 1036.94  138.28
   0  -9  11 1072.91  102.48
   0  -9  12 2185.58  219.42
   0  -9  13 1147.63  139.18
   0  -9  14  507.64  108.83
   0  -9  15  664.33  146.58
   0  -9  16   73.02  103.38
   0  -9  17  -44.20  129.43
   0  -8   1 2779.00   90.98
   0  -8   210499.60  263.12
   0  -8   311850.70  269.90
   0  -8   410337.70  292.38
   0  -8   512811.40  334.43
   0  -8   6 8480.11  192.66
   0  -8   7 3411.96  132.18
   0  -8   8 5855.41  246.38
   0  -8  10 3440.52  159.57
   0  -8  11 3977.03  196.94
   0  -8  12 2049.78  200.77
   0  -8  13  874.73  113.11
   0  -8  14  854.11  121.93
   0  -8  15  644.83  136.27
   0  -8  16  221.80  141.10
   0  -8  17  -16.01  126.85
   0  -7   114720.00  294.70
   0  -7   218033.80  405.72
   0  -7   317876.00  409.64
   0  -7   416270.80  483.54
   0  -7   515821.40  320.95
   0  -7   610009.90  245.48
   0  -7   712736.10  286.90
   0  -7   910135.70  297.56
   0  -7  10 8705.62  287.18
   0  -7  11 4416.22  205.80
   0  -7  12 2158.75  231.46
   0  -7  13 1698.81  153.71
   0  -7  14 1348.23  164.12
   0  -7  15 1166.98  161.75
   0  -7  16  346.06  155.53
   0  -7  17  257.92  148.84
   0  -6   112832.60  430.85
   0  -6   215943.80  336.19
   0  -6   311778.90  336.49
   0  -6   413607.90  375.81
   0  -6   511862.70  271.52
   0  -6   6 8788.23  596.46
   0  -6   717153.60  466.27
   0  -6   812988.30  379.60
   0  -6   911855.40  376.23
   0  -6  10 6407.58  259.84
   0  -6  11 2775.55  164.96
   0  -6  12 1935.80  161.56
   0  -6  13 2354.16  172.16
   0  -6  14 1335.67  161.04
   0  -6  15 1814.88  254.25
   0  -6  16  920.75  154.51
   0  -6  17  492.84  188.48
   0  -5   113709.20  331.57
   0  -5   211149.90  247.20
   0  -5   313773.70  304.19
   0  -5   414707.20  320.03
   0  -5   622096.50  632.32
   0  -5   726541.20  754.45
   0  -5   813260.20  435.67
   0  -5   9 9066.36  498.80
   0  -5  10 5273.44  230.15
   0  -5  11 1843.41  161.81
   0  -5  12 3192.81  207.55
   0  -5  13 1490.18  167.54
   0  -5  14 2133.02  232.61
   0  -5  15 1947.82  249.20
   0  -5  16  900.56  165.74
   0  -5  17   90.80  150.47
   0  -4   113265.40  466.15
   0  -4   211242.90  246.42
   0  -4   321809.20  451.88
   0  -4   4 6236.90  418.18
   0  -4   523504.40  653.46
   0  -4   617470.30  459.58
   0  -4   723357.70  618.73
   0  -4   8 9512.04  349.73
   0  -4   9 7485.78  299.31
   0  -4  10 2906.86  222.28
   0  -4  11 2725.52  184.07
   0  -4  12 2436.63  203.82
   0  -4  13 2697.59  241.27
   0  -4  14 2095.77  214.38
   0  -4  15 1695.57  201.80
   0  -4  16  813.18  187.28
   0  -3   114107.80  422.14
   0  -3   224437.70  495.02
   0  -3   315306.30  663.87
   0  -3   426413.30  643.28
   0  -3   515021.10  490.73
   0  -3   612811.60  409.83
   0  -3   723724.10  717.21
   0  -3   8 9747.09  320.33
   0  -3   9 5094.41  224.93
   0  -3  10 3265.80  284.38
   0  -3  11 3357.17  206.19
   0  -3  12 3954.20  232.38
   0  -3  13 3679.27  350.96
   0  -3  14 1822.55  214.75
   0  -3  15 1643.24  199.68
   0  -3  16  787.37  239.85
   0  -2   130965.70  995.71
   0  -2   245890.80 1165.28
   0  -2   326601.80  638.55
   0  -2   4 7775.49  243.34
   0  -2   5 8651.89  433.29
   0  -2   613945.90  395.60
   0  -2   720112.60  555.04
   0  -2   8 9535.50  381.30
   0  -2   9 3623.76  190.79
   0  -2  10 5500.68  267.84
   0  -2  11 4436.95  233.07
   0  -2  12 4630.89  245.55
   0  -2  13 2951.22  262.02
   0  -2  14 2098.15  212.62
   0  -2  15 1734.29  177.35
   0  -2  16 1036.98  246.30
   0  -1   235167.60 1040.80
   0  -1   313297.20  579.83
   0  -1   4 5079.15  266.75
   0  -1   512492.10  354.02
   0  -1   613006.70  400.45
   0  -1   723681.90  716.54
   0  -1   8 6923.15  298.50
   0  -1   910578.60  363.90
   0  -1  10 6617.32  307.58
   0  -1  11 5958.64  363.08
   0  -1  12 5258.90  270.73
   0  -1  13 3833.33  253.66
   0  -1  14 3233.68  268.65
   0  -1  15 1600.65  193.84
   0   0   247248.40 1697.48
   0   0   369725.50 1620.95
   0   0   433082.90  936.52
   0   0   526692.80  624.35
   0   0   632931.60  901.02
   0   0   724528.20  711.54
   0   0   821211.90  649.79
   0   0   912101.40  574.79
   0   0  10 7779.97  307.18
   0   0  11 7863.74  323.43
   0   0  12 6385.55  300.99
   0   0  13 5257.67  278.82
   0   0  14 3374.36  241.82
   0   0  15 1958.46  243.57
   0   1   135780.20  938.05
   0   1   214997.80  615.66
   0   1   3 5151.55  212.13
   0   1   411940.80  308.10
   0   1   518133.70  450.97
   0   1   617806.50  486.60
   0   1   718806.10  564.23
   0   1   811555.20  387.83
   0   1   9 7204.89  257.59
   0   1  10 7391.03  318.69
   0   1  11 6460.64  292.87
   0   1  12 5647.64  315.18
   0   1  13 4677.50  239.19
   0   1  14 2664.65  242.30
   0   2   041231.20 1716.36
   0   2   122511.40  699.42
   0   2   2 7941.99  244.62
   0   2   311128.60  284.66
   0   2   412065.80  411.36
   0   2   525687.80  679.33
   0   2   610912.70  316.81
   0   2   711355.20  339.46
   0   2   8 7364.39  322.93
   0   2   9 7531.09  272.58
   0   2  10 6030.61  247.69
   0   2  11 5156.26  247.24
   0   2  12 5629.78  480.11
   0   2  13 2939.27  205.71
   0   2  14 2310.04  238.73
   0   3   039864.00 1060.33
   0   3   115438.50  497.46
   0   3   213940.10  355.18
   0   3   314045.90  319.74
   0   3   430538.20  714.16
   0   3   511271.20  319.43
   0   3   6 8970.89  281.87
   0   3   7 8673.49  331.68
   0   3   8 7223.33  334.34
   0   3   9 7327.28  390.54
   0   3  10 4998.03  229.88
   0   3  11 6501.01  288.42
   0   3  12 3437.91  226.63
   0   3  13 3198.29  262.93
   0   4   022032.70  429.78
   0   4   121274.70  537.65
   0   4   218391.20  538.62
   0   4   332251.50  679.03
   0   4   412336.40  324.62
   0   4   510151.20  269.65
   0   4   6 7656.77  253.75
   0   4   7 7720.23  270.86
   0   4   8 8361.89  282.08
   0   4   9 6294.71  252.82
   0   4  10 5549.82  234.47
   0   4  11 4405.91  239.33
   0   4  12 3709.58  185.99
   0   5   019008.50  384.93
   0   5   125273.20  500.85
   0   5   231616.10  828.59
   0   5   316904.80  433.30
   0   5   412182.90  367.29
   0   5   510046.20  330.49
   0   5   6 5615.76  218.30
   0   5   7 8913.64  279.01
   0   5   8 6965.48  286.24
   0   5   9 5646.69  238.73
   0   5  10 4945.87  221.49
   0   5  11 3908.23  153.63
   0   5  12 3066.42  229.74
   0   6   026586.70  527.87
   0   6   119723.70  434.09
   0   6   218641.20  470.19
   0   6   314401.60  415.09
   0   6   411223.90  354.00
   0   6   5 8010.64  295.47
   0   6   6 8246.38  379.37
   0   6   7 7430.98  283.89
   0   6   8 5501.91  230.04
   0   6   9 6668.73  343.89
   0   6  10 4412.92  229.01
   0   6  11 3424.36  353.74
   0   7   015090.80  370.27
   0   7   116882.30  390.20
   0   7   214980.00  396.58
   0   7   310987.40  323.18
   0   7   4 9501.62  322.01
   0   7   5 8564.77  317.68
   0   7   6 6601.48  238.74
   0   7   7 5093.75  215.80
   0   7   8 7145.28  336.21
   0   7   9 5400.29  346.99
   0   7  10 3284.92  232.75
   0   8   011583.70  289.00
   0   8   1 8693.98  239.09
   0   8   2 7768.84  230.83
   0   8   3 8482.40  381.58
   0   8   4 7255.05  245.25
   0   8   5 5857.98  209.34
   0   8   6 4668.54  191.52
   0   8   7 5392.03  291.43
   0   8   8 4957.56  320.82
   0   8   9 3372.15  228.90
   0   9   0 7079.06  189.29
   0   9   1 5973.30  198.08
   0   9   2 6922.06  283.39
   0   9   3 6424.62  222.62
   0   9   4 5175.46  195.98
   0   9   5 5064.57  198.57
   0   9   6 4113.63  213.78
   0   9   7 4116.59  223.08
   0   9   8 3331.20  217.46
   0  10   0 5043.90  171.74
   0  10   1 6399.50  213.94
   0  10   2 5759.11  250.77
   0  10   3 4885.68  208.61
   0  10   4 5783.53  210.84
   0  10   5 4227.67  207.72
   0  10   6 3699.27  204.19
   0  10   7 2977.50  180.90
   0  11   0 6089.03  199.04
   0  11   1 6383.95  273.05
   0  11   2 5574.51  189.02
   0  11   3 6650.28  223.35
   0  11   4 4626.48  193.48
   0  11   5 3833.79  213.64
   0  12   0 1928.17  114.17
   0  12   1 2847.04  123.77
   0  12   2 3824.01  170.85
   0  12   3 2707.63  149.91
   0  12   4 2150.10  196.51
   0  13   0 1302.76  124.23
   0  13   1 2243.99  115.37
   0  13   2 2247.76  197.37
   0  13   3 2089.91  171.64
   0  14   0 1059.04  114.49
   0  14   1 1252.88  104.91
   1 -17   6 4053.86  377.34
   1 -17   7 4644.43  498.04
   1 -17   8 4458.72  425.20
   1 -17   9 4118.66  466.75
   1 -17  10 4309.71  406.39
   1 -17  11 3736.23  377.84
   1 -16   2 3276.56  242.31
   1 -16   3 2335.72  341.99
   1 -16   4 3636.67  305.25
   1 -16   5 4098.84  330.62
   1 -16   6 3831.36  370.02
   1 -16   7 4359.99  552.36
   1 -16   8 5585.24  464.47
   1 -16   9 5236.40  393.72
   1 -16  10 4808.00  411.41
   1 -16  11 4316.62  470.10
   1 -16  12 3504.73  202.48
   1 -16  13 3666.31  327.27
   1 -15   0 3496.65  208.02
   1 -15   1 3014.32  235.06
   1 -15   2 3468.35  700.06
   1 -15   3 3589.72  303.38
   1 -15   4 4523.58  330.39
   1 -15   5 4221.24  333.59
   1 -15   6 4191.73  337.32
   1 -15   7 5402.54  682.99
   1 -15   8 5081.79  474.46
   1 -15   9 5946.51  440.65
   1 -15  10 4632.16  434.19
   1 -15  11 3965.45  174.95
   1 -15  12 4036.50  207.77
   1 -15  13 3250.67  292.65
   1 -15  14 2571.16  130.47
   1 -15  15 3056.73  256.02
   1 -14   0 3061.34  205.87
   1 -14   1 4668.40  181.58
   1 -14   2 4568.83  291.76
   1 -14   3 5367.16  464.26
   1 -14   4 5480.05  384.27
   1 -14   5 5206.13  355.23
   1 -14   6 6265.14  393.04
   1 -14   7 6221.23  383.01
   1 -14   8 7835.74  440.07
   1 -14   9 5953.21  525.26
   1 -14  10 4512.46  317.99
   1 -14  11 4089.49  212.35
   1 -14  12 5484.86  189.40
   1 -14  13 3869.42  180.26
   1 -14  14 4341.42  250.28
   1 -14  15 2766.20  215.82
   1 -13   0 4951.86  321.64
   1 -13   1 5778.61  213.55
   1 -13   2 4862.26  207.65
   1 -13   3 5342.24  358.31
   1 -13   4 4814.76  327.16
   1 -13   5 6354.65  331.12
   1 -13   6 6209.35  290.45
   1 -13   7 8125.02  368.96
   1 -13   8 6711.71  499.24
   1 -13   9 5213.63  244.52
   1 -13  10 4504.56  210.59
   1 -13  11 5669.11  190.41
   1 -13  12 5749.07  201.67
   1 -13  13 5386.39  233.14
   1 -13  14 3882.65  212.18
   1 -13  15 3580.41  243.03
   1 -13  16 2875.75  202.59
   1 -12   0 5053.86  182.51
   1 -12   1 5756.34  197.99
   1 -12   2 6724.87  245.66
   1 -12   3 6327.40  315.46
   1 -12   4 6008.10  311.11
   1 -12   5 7310.98  294.17
   1 -12   6 8501.92  339.50
   1 -12   7 6457.27  404.21
   1 -12   8 7128.21  376.24
   1 -12   9 6301.33  267.21
   1 -12  10 6405.40  310.74
   1 -12  11 7278.63  315.65
   1 -12  12 6953.91  256.06
   1 -12  13 5861.63  248.60
   1 -12  14 4479.11  232.25
   1 -12  15 3625.51  251.21
   1 -12  16 3236.25  279.33
   1 -11   0 5786.55  211.23
   1 -11   1 9947.40  333.04
   1 -11   2 8212.86  237.91
   1 -11   3 5878.42  258.65
   1 -11   4 8782.58  333.59
   1 -11   5 7986.77  287.51
   1 -11   6 6282.99  313.39
   1 -11   7 6646.22  206.20
   1 -11   8 7217.86  269.35
   1 -11   9 7003.50  284.42
   1 -11  10 9530.97  338.63
   1 -11  11 5583.71  222.31
   1 -11  12 8494.87  298.08
   1 -11  13 5686.98  251.53
   1 -11  14 3571.50  204.42
   1 -11  15 3926.61  252.57
   1 -11  16 3857.97  233.32
   1 -11  17 3141.83  269.33
   1 -10   0 6277.44  176.57
   1 -10   1 7447.06  230.58
   1 -10   2 5316.68  370.36
   1 -10   3 8259.11  303.73
   1 -10   4 5501.13  224.08
   1 -10   5 4936.86  218.02
   1 -10   6 6427.11  195.67
   1 -10   7 5481.90  136.12
   1 -10   8 6226.93  175.60
   1 -10   9 8895.74  336.33
   1 -10  10 6961.62  262.25
   1 -10  11 7304.58  286.03
   1 -10  12 5804.73  264.24
   1 -10  13 4231.59  221.14
   1 -10  14 3228.48  197.98
   1 -10  15 4435.82  240.61
   1 -10  16 4137.79  245.57
   1 -10  17 3317.82  282.98
   1  -9   0 4879.18  157.13
   1  -9   1 5418.59  160.70
   1  -9   2 8871.06  307.15
   1  -9   3 5151.04  217.90
   1  -9   4 6689.42  225.14
   1  -9   5 5735.08  169.77
   1  -9   6 7672.84  201.48
   1  -9   7 3868.46  129.40
   1  -9   8 7279.45  221.59
   1  -9   9 9169.16  306.78
   1  -9  10 8505.02  311.58
   1  -9  11 4247.90  230.10
   1  -9  12 4536.15  273.24
   1  -9  13 3816.35  209.38
   1  -9  14 4687.28  247.37
   1  -9  15 4962.77  269.82
   1  -9  16 3759.64  249.93
   1  -9  17 3451.97  361.45
   1  -8   0 2237.59   77.83
   1  -8   1 6011.54  164.24
   1  -8   2 6088.58  259.84
   1  -8   3 7904.41  266.08
   1  -8   4 8207.32  257.54
   1  -8   5 9241.39  305.71
   1  -8   6 4883.06  133.83
   1  -8   7 2553.46  100.16
   1  -8   811899.20  335.23
   1  -8   9 7442.11  250.40
   1  -8  10 6677.71  268.44
   1  -8  11 4040.56  191.20
   1  -8  12 4257.24  256.20
   1  -8  13 4836.80  246.74
   1  -8  14 5356.02  283.42
   1  -8  15 4619.51  279.20
   1  -8  16 3979.77  244.87
   1  -8  17 3095.12  275.82
   1  -7   0 1567.12  148.56
   1  -7   112972.70  471.29
   1  -7   217961.60  552.59
   1  -7   320031.90  618.03
   1  -7   421469.20  505.74
   1  -7   515183.20  332.33
   1  -7   6 3364.66  108.31
   1  -7   715841.60  457.25
   1  -7   8 9903.72  292.62
   1  -7   9 9312.87  312.95
   1  -7  10 8720.52  306.87
   1  -7  11 5047.89  215.25
   1  -7  12 5167.39  235.90
   1  -7  13 6216.54  481.98
   1  -7  14 5034.78  306.55
   1  -7  15 5492.52  362.74
   1  -7  16 4202.62  265.58
   1  -7  17 3117.45  316.18
   1  -6   0 1013.28  140.14
   1  -6   1 9461.44  342.01
   1  -6   211598.40  441.71
   1  -6   311966.40  303.03
   1  -6   411802.80  247.85
   1  -6   5  982.81   48.29
   1  -6   6 8036.26  230.96
   1  -6   7 1662.33  332.88
   1  -6   8 5439.32  211.94
   1  -6   9 7761.16  254.62
   1  -6  10 6656.37  250.27
   1  -6  11 2758.81  185.39
   1  -6  12 4094.21  234.12
   1  -6  13 4277.59  274.98
   1  -6  14 5232.25  469.61
   1  -6  15 4338.12  304.95
   1  -6  16 3378.19  331.24
   1  -6  17 2508.66  742.08
   1  -5   0  593.74   63.66
   1  -5   113465.90  561.48
   1  -5   2 7553.07  362.00
   1  -5   312995.40  263.81
   1  -5   4 2309.57   74.96
   1  -5   5 1910.21  137.75
   1  -5   6  600.03   88.63
   1  -5   7 1966.74  123.62
   1  -5   8 6467.55  237.98
   1  -5   9 6003.35  240.89
   1  -5  10 3665.76  235.52
   1  -5  11 1748.07  161.72
   1  -5  12 3284.30  228.15
   1  -5  13 4222.55  276.78
   1  -5  14 3682.90  469.60
   1  -5  15 3375.33  281.45
   1  -5  16 3033.68  424.52
   1  -4   0 2043.67  129.18
   1  -4   1 6790.85  211.88
   1  -4   2 6215.76  204.90
   1  -4   3 7002.72  152.32
   1  -4   4 1176.85   65.06
   1  -4   5   81.08   37.34
   1  -4   6 1399.64   94.37
   1  -4   7 2634.08  140.03
   1  -4   8 4946.47  205.16
   1  -4   9 3644.02  188.16
   1  -4  10 2187.54  163.19
   1  -4  11 1861.63  168.90
   1  -4  12 2095.93  195.80
   1  -4  13 3726.67  262.05
   1  -4  14 1993.35  217.54
   1  -4  15 3411.44  250.74
   1  -4  16 2902.41  281.73
   1  -3   0 3875.06  245.40
   1  -3   1 8048.31  176.43
   1  -3   225175.90  476.02
   1  -3   3 6010.81  161.82
   1  -3   4  765.01   61.73
   1  -3   5 1609.85   94.51
   1  -3   6 3739.70  157.62
   1  -3   7 3963.44  175.77
   1  -3   8 4252.13  193.00
   1  -3   9 1827.21  152.42
   1  -3  10 3505.02  204.75
   1  -3  11 1104.99  143.64
   1  -3  12 2658.73  210.73
   1  -3  13 2135.33  196.17
   1  -3  14 2848.38  252.49
   1  -3  15 2887.84  245.98
   1  -3  16 1601.32  199.54
   1  -2   0  454.65   36.70
   1  -2   1 4185.71  161.18
   1  -2   2 2608.63  160.26
   1  -2   3 2163.31   81.73
   1  -2   4 1531.95   76.11
   1  -2   5 2415.98  105.55
   1  -2   6 5598.75  188.07
   1  -2   7 3339.85  164.30
   1  -2   8 2290.18  152.20
   1  -2   9 2195.95  160.03
   1  -2  10 2856.73  219.96
   1  -2  11 2184.66  207.21
   1  -2  12 1821.99  195.53
   1  -2  13 3128.61  291.02
   1  -2  14 2663.49  216.08
   1  -2  15 1340.86  164.44
   1  -1   0  314.96   15.60
   1  -1   1   28.68   11.03
   1  -1   2  363.83   37.95
   1  -1   3 2167.04   85.08
   1  -1   4 3726.58  128.67
   1  -1   5 4214.34  150.90
   1  -1   6 4876.04  177.13
   1  -1   7 3006.87  145.33
   1  -1   8 1573.53  127.49
   1  -1   9 2307.20  155.83
   1  -1  10 4042.25  227.03
   1  -1  11 1381.52  137.19
   1  -1  12 3014.79  242.80
   1  -1  13 1864.53  205.24
   1  -1  14 1257.75  140.36
   1  -1  15 1001.55  203.59
   1   0   0  333.63   22.98
   1   0   1 4565.44  143.26
   1   0   2 9305.56  326.22
   1   0   3 7348.37  201.34
   1   0   4 6243.70  189.12
   1   0   5 6171.16  198.32
   1   0   6 5508.81  200.91
   1   0   7 1307.62  111.72
   1   0   8 2320.78  149.81
   1   0   9 2797.88  183.70
   1   0  10 4024.79  192.07
   1   0  11 2052.97  243.79
   1   0  12  950.41  161.92
   1   0  13 1195.95  187.38
   1   0  14  722.79  146.97
   1   1   0 5459.34   99.95
   1   1   1  475.37   50.85
   1   1   2  395.01  101.07
   1   1   3  196.66   89.17
   1   1   4  691.69   73.46
   1   1   5 1901.96  138.41
   1   1   6  149.51   55.73
   1   1   7  385.08   78.27
   1   1   8  817.15  103.29
   1   1   9 1845.77  136.95
   1   1  10 1846.95  143.80
   1   1  11  372.18   78.45
   1   1  12  595.88  173.57
   1   1  13  530.45   96.77
   1   1  14  604.30  199.43
   1   2   0 8808.72  185.51
   1   2   1  387.61   41.29
   1   2   2  309.86   72.90
   1   2   3   90.26   58.37
   1   2   5   97.68   51.62
   1   2   6  161.97   59.72
   1   2   7  137.01   78.65
   1   2   8  596.17   64.47
   1   2   9  169.76   46.09
   1   2  10  585.82   90.56
   1   2  11  373.24  108.22
   1   2  12  334.77   88.53
   1   2  13  405.85  214.39
   1   3   0 8149.63  198.89
   1   3   1 2077.24  164.16
   1   3   2  641.70   85.71
   1   3   4  153.84   49.15
   1   3   5   41.25   42.82
   1   3   6  102.24   63.93
   1   3   7  136.81   31.99
   1   3   8   31.56   26.15
   1   3   9   64.67   33.09
   1   3  10  612.68  121.02
   1   3  11  211.48  100.45
   1   3  12  166.16  116.42
   1   4   0 3367.26   88.35
   1   4   1 1262.15  125.43
   1   4   2 1023.82  195.72
   1   4   3  377.78  106.85
   1   4   4  108.88   39.52
   1   4   5   60.03   50.28
   1   4   6  103.98   28.83
   1   4   7    3.74   25.93
   1   4   8    7.86    8.92
   1   4   9  143.26   48.68
   1   4  10  449.67   92.27
   1   4  11  160.00   85.22
   1   4  12  166.24  104.81
   1   5   0 4886.17  118.97
   1   5   1 3214.49  367.80
   1   5   2  787.77  230.88
   1   5   3  494.48  118.48
   1   5   4  159.35   78.51
   1   5   5  336.29   77.09
   1   5   6  123.30   47.83
   1   5   7   39.81   30.59
   1   5   8    5.54   11.67
   1   5   9  -12.69   19.00
   1   5  10  231.66  108.67
   1   5  11  144.74   85.16
   1   6   0 5353.63  134.12
   1   6   1 2312.21  253.16
   1   6   3  586.96  131.67
   1   6   4 1446.73  149.07
   1   6   5  196.83   72.38
   1   6   6  106.37   76.62
   1   6   7   -8.96   69.76
   1   6   8  -11.49   49.03
   1   6   9  -26.81  105.06
   1   6  10  -10.29  134.64
   1   7   0 2684.57   92.81
   1   7   1 3112.80  103.45
   1   7   2 4278.18  299.53
   1   7   3 2825.80  261.01
   1   7   4  206.53   98.49
   1   7   5  277.46   79.45
   1   7   6  173.14   90.63
   1   7   7  168.36  116.81
   1   7   8   59.98  115.94
   1   7   9 -120.32  120.32
   1   8   0 3260.72  169.01
   1   8   1 3555.33  134.72
   1   8   2 4596.00  246.23
   1   8   3  790.52  117.17
   1   8   4  603.79  133.94
   1   8   5  498.40  161.04
   1   8   6  266.95  112.07
   1   8   7  225.90  183.75
   1   8   8  -23.29  102.37
   1   9   0 4590.19  274.40
   1   9   1 4293.24  157.45
   1   9   2 2590.03  247.76
   1   9   3  982.11  116.58
   1   9   4  835.75  125.56
   1   9   5  753.05  194.73
   1   9   6  503.68  145.56
   1   9   7  145.17  144.68
   1  10   0 3013.10  134.17
   1  10   1 3589.85  198.22
   1  10   2 1154.47  116.36
   1  10   3 1031.61  130.24
   1  10   4  345.00  105.64
   1  10   5  485.73  176.13
   1  10   6  171.20  137.38
   1  11   0 2968.39  257.28
   1  11   1 1498.77  120.43
   1  11   2  933.28  148.99
   1  11   3  424.12   92.24
   1  11   4  476.89  130.86
   1  11   5  495.77  164.23
   1  12   0 4344.27  285.48
   1  12   1 3098.57  190.04
   1  12   2 1739.59  177.65
   1  12   3 1459.89  266.99
   1  13   0 3304.45  233.53
   1  13   1 2507.27  189.07
   1  13   2 1847.91  155.72
   1  14   0 2026.56  402.67
   2 -17   5   87.17  144.24
   2 -17   6  -20.50  143.71
   2 -17   7  183.29  171.67
   2 -17   8  -63.35  172.62
   2 -17   9    3.68    6.58
   2 -17  10  156.25  140.03
   2 -17  11  -18.00  127.50
   2 -16   2  159.96  112.29
   2 -16   3  -36.99  131.82
   2 -16   4   11.51  128.03
   2 -16   5  459.94  160.95
   2 -16   6  127.01  142.86
   2 -16   7  181.18  166.73
   2 -16   8  146.57  102.61
   2 -16   9   14.34   80.84
   2 -16  10   27.63  198.14
   2 -16  11    9.37  167.97
   2 -16  12   -6.88   10.79
   2 -16  13  -80.73   80.73
   2 -15   0 1129.16  127.54
   2 -15   1  667.91   71.78
   2 -15   2  635.48  144.90
   2 -15   3  580.73  151.47
   2 -15   4  688.55  174.45
   2 -15   5  700.45  167.33
   2 -15   6   -1.91  127.70
   2 -15   7  109.15   96.66
   2 -15   8  157.96  124.46
   2 -15   9  118.89  195.77
   2 -15  10   97.35   46.51
   2 -15  11  -14.19   31.12
   2 -15  12   31.83   90.41
   2 -15  13  -52.84   52.84
   2 -15  14  -73.02   73.02
   2 -14   0 1547.36  144.48
   2 -14   1 1821.14  110.81
   2 -14   2 1480.30  181.51
   2 -14   3 1357.53  187.86
   2 -14   4 1549.39  185.05
   2 -14   5 1027.32  182.84
   2 -14   6  405.57   90.28
   2 -14   7  622.46  143.10
   2 -14   8  801.23  165.78
   2 -14   9  478.69  128.36
   2 -14  10  257.76   66.57
   2 -14  11   29.72   31.01
   2 -14  12  -61.84   61.84
   2 -14  13  149.96  106.51
   2 -14  14  -68.69   68.69
   2 -14  15  -83.34   83.34
   2 -13   0 1956.54  317.75
   2 -13   1 2856.92  156.20
   2 -13   2 2082.49  176.68
   2 -13   3 2658.27  270.00
   2 -13   4 2736.50  241.70
   2 -13   5 1223.08  121.69
   2 -13   6 1683.00  139.78
   2 -13   7 1418.72  208.41
   2 -13   8  755.00  137.98
   2 -13   9  842.39   88.53
   2 -13  10  437.04   53.79
   2 -13  11   36.76   66.95
   2 -13  12  350.89  142.25
   2 -13  13  -53.73   83.07
   2 -13  14   34.05   85.52
   2 -13  15  -73.99  102.85
   2 -13  16  -88.71   88.71
   2 -12   0 2944.96  170.04
   2 -12   1 4370.22  178.23
   2 -12   2 3981.66  223.87
   2 -12   3 4666.77  405.17
   2 -12   4 2065.26  170.14
   2 -12   5 2541.25  150.28
   2 -12   6 1460.74  148.74
   2 -12   7 1351.27  168.17
   2 -12   8 1911.41  165.19
   2 -12   9 1910.91  137.15
   2 -12  10   98.64   61.11
   2 -12  11   24.45   68.28
   2 -12  12  289.89   98.63
   2 -12  13  249.34  130.20
   2 -12  14  182.10  108.83
   2 -12  15  147.94  126.92
   2 -12  16 -106.46  106.46
   2 -11   0 5054.89  173.70
   2 -11   1 7105.38  274.01
   2 -11   2 8857.01  292.78
   2 -11   3 5177.20  248.26
   2 -11   4 4161.49  215.26
   2 -11   5 3064.26  189.98
   2 -11   6 2832.93  231.69
   2 -11   7 3731.90  236.14
   2 -11   8 4294.55  150.74
   2 -11   9 1819.60  140.45
   2 -11  10  563.15   89.55
   2 -11  11  166.13   83.16
   2 -11  12 1049.92  117.70
   2 -11  13  738.89  124.24
   2 -11  14  592.23  135.84
   2 -11  15  115.57  116.09
   2 -11  16 -108.61  108.61
   2 -10   0 5238.96  162.85
   2 -10   1 9586.36  246.09
   2 -10   2 7514.80  227.43
   2 -10   3 3978.02  145.52
   2 -10   4 2083.36   86.35
   2 -10   5 2331.65   94.02
   2 -10   6 2947.94  100.88
   2 -10   7 4056.15  133.66
   2 -10   8 3356.60  210.06
   2 -10   9  953.80  107.70
   2 -10  10  851.50  102.28
   2 -10  11   85.12   66.30
   2 -10  12 1244.42  139.88
   2 -10  13  981.27  128.80
   2 -10  14  499.56  122.54
   2 -10  15  152.52  145.75
   2 -10  16 -120.59  135.77
   2  -9   0 7251.86  193.17
   2  -9   113300.50  326.47
   2  -9   2 6126.42  200.54
   2  -9   3 3849.83  164.28
   2  -9   4 3244.95  154.24
   2  -9   5 3734.10  149.04
   2  -9   6 5472.67  307.54
   2  -9   7 6812.61  231.01
   2  -9   8 2499.04  143.94
   2  -9   9 1889.04  131.24
   2  -9  10  959.80   99.84
   2  -9  11  158.09   76.59
   2  -9  12 1659.56  151.82
   2  -9  13 1527.85  151.72
   2  -9  14  606.08  135.26
   2  -9  15  330.42  188.51
   2  -9  16   22.50  121.44
   2  -8   011625.20  322.32
   2  -8   1 9591.12  234.66
   2  -8   2 7745.00  185.78
   2  -8   3 6376.72  285.77
   2  -8   4 3605.48  131.94
   2  -8   5 6116.67  206.98
   2  -8   610560.90  283.47
   2  -8   7 4447.87  190.95
   2  -8   8 3432.67  154.77
   2  -8   9 1694.35  118.94
   2  -8  10 1773.04  131.46
   2  -8  11  276.00   79.36
   2  -8  12 2312.94  179.83
   2  -8  13 1524.06  157.40
   2  -8  14  546.94  130.90
   2  -8  15  352.88  105.02
   2  -8  16  267.23  116.72
   2  -7   0 4441.20  135.02
   2  -7   1 8943.89  202.49
   2  -7   2 5501.67  126.04
   2  -7   3 2630.16  123.20
   2  -7   4 2790.20  105.48
   2  -7   5 6962.05  185.07
   2  -7   6 6577.13  205.23
   2  -7   7 3427.29  145.60
   2  -7   8 2022.12  115.28
   2  -7   9 1948.93  124.47
   2  -7  10 1923.62  147.77
   2  -7  11  769.83  109.22
   2  -7  12 1940.01  179.51
   2  -7  13  633.60  148.58
   2  -7  14  493.23  109.64
   2  -7  15  875.20  149.63
   2  -7  16  360.64  171.15
   2  -6   017824.50  383.12
   2  -6   119090.00  407.44
   2  -6   215179.80  333.64
   2  -6   313856.00  315.62
   2  -6   413929.60  298.57
   2  -6   518689.00  451.88
   2  -6   6 9739.21  252.24
   2  -6   7 7623.05  220.84
   2  -6   8 5634.64  201.61
   2  -6   9 4575.20  209.68
   2  -6  10 5214.16  297.47
   2  -6  11 1355.50  146.94
   2  -6  12 1881.87  181.54
   2  -6  13 1173.32  139.36
   2  -6  14 1037.33  167.28
   2  -6  15 1328.52  167.64
   2  -6  16  274.77  204.34
   2  -5   017752.90  378.11
   2  -5   120333.30  414.60
   2  -5   217883.80  359.75
   2  -5   316370.70  333.62
   2  -5   420393.70  441.76
   2  -5   514382.30  338.35
   2  -5   612280.20  332.17
   2  -5   7 7912.08  267.20
   2  -5   8 8545.81  296.10
   2  -5   9 6867.61  371.17
   2  -5  10 6249.68  266.65
   2  -5  11 1454.18  151.43
   2  -5  12 2256.81  187.37
   2  -5  13 1929.21  183.48
   2  -5  14 2040.08  213.93
   2  -5  15 1370.12  185.69
   2  -5  16 1286.18  274.47
   2  -4   016185.90  471.98
   2  -4   124832.10  515.57
   2  -4   211054.10  216.36
   2  -4   328761.90  592.24
   2  -4   414755.80  362.32
   2  -4   514475.60  369.73
   2  -4   6 9725.02  322.55
   2  -4   712059.50  370.20
   2  -4   8 7048.83  265.92
   2  -4   9 7010.45  336.13
   2  -4  10 7444.75  301.08
   2  -4  11 1539.66  141.38
   2  -4  12 2385.25  194.95
   2  -4  13 3259.33  210.10
   2  -4  14 1175.43  203.99
   2  -4  15 2356.65  426.45
   2  -3   011795.00  434.80
   2  -3   113876.00  277.32
   2  -3   217889.40  358.27
   2  -3   317107.40  371.88
   2  -3   413811.70  318.91
   2  -3   512109.30  317.45
   2  -3   611887.10  350.98
   2  -3   7 7458.71  242.47
   2  -3   8 7993.77  294.54
   2  -3   9 8270.84  358.64
   2  -3  10 7518.16  339.90
   2  -3  11 1750.27  150.12
   2  -3  12 3416.38  242.14
   2  -3  13 2606.08  211.75
   2  -3  14 2187.38  208.83
   2  -3  15 1198.98  339.30
   2  -2   0 6533.59  154.88
   2  -2   114959.80  378.98
   2  -2   215288.50  309.36
   2  -2   321783.20  465.76
   2  -2   410035.50  267.90
   2  -2   5 9975.44  278.70
   2  -2   6 6344.92  254.97
   2  -2   7 7858.01  255.10
   2  -2   8 9715.86  307.59
   2  -2   9 7425.79  255.87
   2  -2  10 6718.89  257.23
   2  -2  11 2629.70  189.51
   2  -2  12 3470.93  254.92
   2  -2  13 2551.83  291.31
   2  -2  14  787.26  169.91
   2  -2  15  972.29  370.74
   2  -1   0  778.56   34.70
   2  -1   124909.80  451.25
   2  -1   221205.20  448.57
   2  -1   318423.70  517.37
   2  -1   4 6798.89  205.28
   2  -1   5 8077.79  243.96
   2  -1   6 9282.99  386.53
   2  -1   711257.20  338.02
   2  -1   8 8924.87  308.93
   2  -1   9 7085.64  254.80
   2  -1  10 6152.41  250.52
   2  -1  11 4561.11  237.22
   2  -1  12 1682.70  175.81
   2  -1  13 1119.47  224.44
   2  -1  14  918.13  201.16
   2   0   017164.20  320.32
   2   0   114955.60  326.65
   2   0   220120.20  434.90
   2   0   312442.80  319.62
   2   0   4 7999.50  236.74
   2   0   5 9463.50  309.43
   2   0   612901.50  364.88
   2   0   710607.00  309.17
   2   0   8 8988.96  287.41
   2   0   9 5137.66  217.09
   2   0  1011030.30  367.61
   2   0  11 1732.62  151.77
   2   0  12 1721.72  201.59
   2   0  13 1514.62  205.20
   2   0  14 1109.65  274.84
   2   1   015945.30  286.10
   2   1   122334.20  415.21
   2   1   210983.00  262.71
   2   1   316533.70  379.41
   2   1   411884.70  365.34
   2   1   512954.20  360.40
   2   1   611833.80  330.16
   2   1   711041.00  331.47
   2   1   8 6665.17  243.32
   2   1   9 9736.90  318.87
   2   1  10 4496.07  242.28
   2   1  11 3175.42  250.53
   2   1  12 3680.93  316.75
   2   1  13 1677.32  306.38
   2   2   018375.80  351.24
   2   2   110542.60  219.22
   2   2   215014.30  360.86
   2   2   319651.80  448.12
   2   2   415282.10  371.21
   2   2   512218.90  306.93
   2   2   611613.50  314.90
   2   2   7 9065.85  284.98
   2   2   8 7070.79  256.60
   2   2   9 4703.84  212.06
   2   2  10 7671.20  622.33
   2   2  11 4449.28  256.08
   2   2  12 2411.68  238.02
   2   3   011146.20  220.57
   2   3   112569.60  259.74
   2   3   214432.40  360.28
   2   3   319434.20  449.01
   2   3   411469.90  289.19
   2   3   510958.00  289.09
   2   3   610218.80  278.19
   2   3   7 3105.08  138.92
   2   3   8 5197.34  236.38
   2   3   9 7071.77  288.48
   2   3  10 7692.08  343.85
   2   3  11 3466.35  207.93
   2   3  12 2817.89  390.83
   2   4   0 7193.71  161.39
   2   4   1 9732.28  230.45
   2   4   212601.70  291.97
   2   4   312630.10  310.22
   2   4   4 9930.40  262.98
   2   4   5 9830.42  270.52
   2   4   6 1639.55  105.94
   2   4   7 5627.00  198.34
   2   4   8 6974.08  284.29
   2   4   9 6128.89  553.59
   2   4  10 6567.87  380.69
   2   4  11 3905.98  259.80
   2   5   013651.70  274.62
   2   5   115904.80  314.95
   2   5   215431.20  341.75
   2   5   315261.80  346.60
   2   5   412506.10  322.76
   2   5   5 2329.26  124.74
   2   5   6 6901.94  223.74
   2   5   7 7888.14  269.24
   2   5   8 6027.17  287.06
   2   5   9 7450.98  353.36
   2   5  10 5562.30  318.28
   2   6   013327.50  273.98
   2   6   112736.00  260.83
   2   6   212258.40  289.81
   2   6   311824.40  290.50
   2   6   4 4761.94  163.74
   2   6   5 6792.40  213.23
   2   6   6 8086.43  268.73
   2   6   7 6249.18  291.67
   2   6   8 7781.75  277.94
   2   6   9 5274.62  267.49
   2   7   0 9705.68  211.02
   2   7   1 9875.72  245.08
   2   7   2 7123.81  191.64
   2   7   3 8837.63  240.75
   2   7   4 6092.44  195.40
   2   7   5 7198.26  246.53
   2   7   6 6280.81  257.62
   2   7   7 7067.46  277.56
   2   7   8 4347.89  235.49
   2   8   0 6450.17  159.74
   2   8   1 4061.49  123.50
   2   8   210327.60  265.93
   2   8   3 5296.50  178.72
   2   8   4 6187.70  214.67
   2   8   5 5656.83  267.55
   2   8   6 5749.87  276.49
   2   8   7 4564.30  255.16
   2   9   0 3241.82  117.49
   2   9   110049.90  258.82
   2   9   2 4117.04  153.31
   2   9   3 5257.02  196.55
   2   9   4 5589.65  264.48
   2   9   5 3453.22  292.35
   2   9   6 3802.39  238.98
   2  10   0 6650.16  195.69
   2  10   1 3438.73  159.28
   2  10   2 3321.50  192.07
   2  10   3 4155.21  220.36
   2  10   4 3315.48  252.33
   2  10   5 2928.08  212.42
   2  11   0 3548.38  152.95
   2  11   1 2563.14  179.94
   2  11   2 2968.80  284.76
   2  11   3 2128.96  309.40
   2  11   4 2075.82  211.55
   2  12   0 3361.69  217.10
   2  12   1 2614.39  190.39
   2  12   2 1724.14  182.84
   2  13   0 1780.04  145.62
   3 -17   4 3500.16  300.97
   3 -17   5 4522.07  342.15
   3 -17   6 4101.38  325.15
   3 -17   7 4007.60  347.46
   3 -17   8 5168.68  402.99
   3 -17   9 4516.27  329.14
   3 -17  10 3985.31  328.47
   3 -17  11 3529.75  652.15
   3 -16   1 2268.48  156.93
   3 -16   2 2846.37  601.45
   3 -16   3 3478.78  283.49
   3 -16   4 4580.22  320.57
   3 -16   5 4363.87  316.75
   3 -16   6 4611.60  353.55
   3 -16   7 4704.25  360.01
   3 -16   8 4492.62  402.42
   3 -16   9 4047.26  308.48
   3 -16  10 4990.39  637.63
   3 -16  11 3785.57  232.72
   3 -16  12 1788.52  172.04
   3 -16  13 1537.21  130.84
   3 -15   0 2302.93  171.86
   3 -15   1 2294.49  163.74
   3 -15   2 3208.05  300.43
   3 -15   3 4259.29  294.95
   3 -15   4 4312.18  257.70
   3 -15   5 4809.35  271.41
   3 -15   6 3878.97  257.74
   3 -15   7 4008.04  247.62
   3 -15   8 3396.44  245.32
   3 -15   9 4494.26  461.54
   3 -15  10 4905.18  250.93
   3 -15  11 3620.90  288.87
   3 -15  12 1706.62  124.48
   3 -15  13 2519.39  234.24
   3 -15  14 2591.39  350.87
   3 -14   0 2964.77  200.39
   3 -14   1 4002.70  166.93
   3 -14   2 4599.25  176.15
   3 -14   3 6956.47  400.13
   3 -14   4 7764.36  553.29
   3 -14   5 5769.83  442.42
   3 -14   6 5775.15  326.98
   3 -14   7 6280.09  678.14
   3 -14   8 6403.57  524.03
   3 -14   9 6965.25  524.00
   3 -14  10 5923.46  205.84
   3 -14  11 5269.63  273.26
   3 -14  12 2918.85  237.09
   3 -14  13 3323.67  195.99
   3 -14  14 3854.72  243.86
   3 -14  15 2930.98  269.01
   3 -13   0 3292.15  106.65
   3 -13   1 3269.75  214.66
   3 -13   2 6670.12  291.03
   3 -13   3 7084.24  272.42
   3 -13   4 5301.09  290.82
   3 -13   5 3770.19  243.15
   3 -13   6 3615.34  289.36
   3 -13   7 5214.21  304.65
   3 -13   8 6851.01  273.26
   3 -13   9 6199.62  206.09
   3 -13  10 6286.39  262.15
   3 -13  11 5679.69  255.86
   3 -13  12 2965.64  170.31
   3 -13  13 3297.37  190.83
   3 -13  14 3472.98  242.99
   3 -13  15 3228.62  257.01
   3 -12   0 3337.17  110.51
   3 -12   1 6064.25  223.20
   3 -12   2 5749.56  213.06
   3 -12   3 5314.56  571.23
   3 -12   4 4879.33  215.86
   3 -12   5 3983.42  197.81
   3 -12   6 4873.86  236.71
   3 -12   7 6188.34  221.41
   3 -12   8 6897.57  258.12
   3 -12   9 7770.13  299.14
   3 -12  10 5862.85  234.72
   3 -12  11 6128.50  252.76
   3 -12  12 3234.25  202.20
   3 -12  13 3537.64  207.55
   3 -12  14 3798.13  262.05
   3 -12  15 3076.05  245.10
   3 -11   0 5763.87  157.57
   3 -11   1 4758.69  155.43
   3 -11   2 6062.09  315.69
   3 -11   3 5129.87  201.71
   3 -11   4 5892.29  198.85
   3 -11   5 4808.10  184.19
   3 -11   6 5564.64  180.75
   3 -11   7 7757.26  230.73
   3 -11   8 9060.89  307.31
   3 -11   9 6287.26  263.16
   3 -11  10 5594.67  213.36
   3 -11  11 7117.30  258.68
   3 -11  12 3621.18  208.24
   3 -11  13 3647.13  215.71
   3 -11  14 4399.05  259.47
   3 -11  15 2352.14  196.59
   3 -11  16 2299.72  214.04
   3 -10   0 2522.44  146.04
   3 -10   1 3940.08  119.00
   3 -10   2 3318.15  123.61
   3 -10   3 3758.67  102.88
   3 -10   4 4426.15  131.62
   3 -10   5 2828.98   99.86
   3 -10   6 5933.74  186.80
   3 -10   7 7067.30  222.77
   3 -10   8 5244.91  191.26
   3 -10   9 4217.62  169.05
   3 -10  10 5020.46  196.59
   3 -10  11 7989.43  271.98
   3 -10  12 3571.68  203.94
   3 -10  13 4702.14  254.46
   3 -10  14 3233.40  217.18
   3 -10  15 2382.62  183.20
   3 -10  16 3345.35  247.53
   3  -9   0 3932.88  138.75
   3  -9   1 3740.11  115.31
   3  -9   2 3956.13  116.76
   3  -9   3 4306.77  121.88
   3  -9   4 4456.83  137.80
   3  -9   5 5336.17  168.18
   3  -9   6 6120.17  194.99
   3  -9   7 4532.31  155.27
   3  -9   8 3967.07  154.72
   3  -9   9 3777.14  162.75
   3  -9  10 4870.42  208.26
   3  -9  11 7381.68  259.85
   3  -9  12 5114.59  237.57
   3  -9  13 3080.37  192.74
   3  -9  14 2757.49  180.78
   3  -9  15 2460.24  189.92
   3  -9  16 3081.75  260.50
   3  -8   0 3950.22  131.37
   3  -8   1 3637.42  120.34
   3  -8   2 4699.79  138.05
   3  -8   3 3326.41  115.83
   3  -8   4 8291.89  202.59
   3  -8   5 4184.28  130.22
   3  -8   6 4162.52  142.04
   3  -8   7 3732.84  143.50
   3  -8   8 3204.11  142.24
   3  -8   9 3781.82  164.95
   3  -8  10 5617.49  236.46
   3  -8  11 9440.61  335.25
   3  -8  12 3458.57  195.03
   3  -8  13 3389.67  208.07
   3  -8  14 3204.99  200.83
   3  -8  15 2526.73  185.60
   3  -8  16 2104.63  213.82
   3  -7   0 2553.84   88.81
   3  -7   1 3333.26  100.90
   3  -7   2 3433.85   99.89
   3  -7   3 4288.93  121.84
   3  -7   4 5036.86  140.12
   3  -7   5 3405.55  116.73
   3  -7   6 3746.53  136.05
   3  -7   7 1923.72  109.65
   3  -7   8 3156.69  145.23
   3  -7   9 5349.59  200.39
   3  -7  10 4514.66  236.91
   3  -7  11 8603.31  325.49
   3  -7  12 4422.63  291.98
   3  -7  13 3463.91  237.46
   3  -7  14 2817.71  222.82
   3  -7  15 1972.20  185.96
   3  -7  16 1480.88  284.61
   3  -6   0 5277.47  160.36
   3  -6   1 8277.04  220.14
   3  -6   2 4184.70  107.75
   3  -6   3 4592.24  126.06
   3  -6   410315.80  237.54
   3  -6   5 5356.52  161.98
   3  -6   6 3173.89  126.20
   3  -6   7 3195.22  149.83
   3  -6   8 6409.58  234.29
   3  -6   9 4241.69  203.64
   3  -6  10 5542.68  237.54
   3  -6  11 9928.65  363.82
   3  -6  12 4065.61  245.18
   3  -6  13 3510.27  259.55
   3  -6  14 3570.13  333.74
   3  -6  15 1472.67  224.82
   3  -5   0 6890.20  176.99
   3  -5   1 1506.70   85.52
   3  -5   2 2757.01   84.97
   3  -5   3 3988.06  125.71
   3  -5   4 8918.59  227.07
   3  -5   5 3092.38  132.25
   3  -5   6 2525.82  128.06
   3  -5   7 4420.54  182.19
   3  -5   8 3605.43  188.47
   3  -5   9 5555.03  235.49
   3  -5  10 4533.13  216.12
   3  -5  11 7694.64  313.81
   3  -5  12 2921.83  221.48
   3  -5  13 3510.76  233.99
   3  -5  14 3143.13  439.15
   3  -5  15 1625.33  362.69
   3  -4   0  172.64   27.23
   3  -4   1 2543.18   79.03
   3  -4   2 2123.97   67.63
   3  -4   3 1968.72   77.84
   3  -4   4 6749.21  186.37
   3  -4   5 2779.52  116.04
   3  -4   6 3408.56  141.15
   3  -4   7 2837.52  147.51
   3  -4   8 5135.76  202.98
   3  -4   9 3730.04  187.95
   3  -4  10 2700.33  169.49
   3  -4  11 4553.42  240.69
   3  -4  12 3606.48  224.97
   3  -4  13 4046.91  319.58
   3  -4  14 1868.95  220.36
   3  -4  15 1873.09  369.40
   3  -3   0  320.37   34.47
   3  -3   1 7211.67  169.05
   3  -3   2 1044.79   58.63
   3  -3   3 3456.24  115.29
   3  -3   4 9647.38  246.45
   3  -3   5 3319.65  130.69
   3  -3   6 5465.44  197.05
   3  -3   7 4986.28  187.80
   3  -3   8 3232.02  159.58
   3  -3   9 2388.43  151.58
   3  -3  10 1326.92  115.11
   3  -3  11 3892.58  235.72
   3  -3  12 5036.71  290.00
   3  -3  13 1383.81  191.76
   3  -3  14 2336.31  270.02
   3  -2   0   85.59   19.93
   3  -2   1   28.05   22.87
   3  -2   2 2438.02   83.47
   3  -2   3 1099.56   71.95
   3  -2   4 2007.07   98.75
   3  -2   5 7172.14  235.07
   3  -2   6 3492.92  154.08
   3  -2   7 1524.39  113.67
   3  -2   8 1434.20  113.95
   3  -2   9  767.04   89.92
   3  -2  10  385.13   67.25
   3  -2  11 6009.19  274.77
   3  -2  12 1291.68  172.53
   3  -2  13 2516.58  292.27
   3  -2  14 1700.36  273.36
   3  -1   0  350.38   33.90
   3  -1   1 1744.26   67.61
   3  -1   2  948.54   58.89
   3  -1   3   32.38   34.14
   3  -1   410899.40  305.44
   3  -1   5 2839.98  123.50
   3  -1   6 1754.97  124.18
   3  -1   7  691.68   89.35
   3  -1   8  645.63   82.83
   3  -1   9  202.78   63.04
   3  -1  10 1281.67  145.51
   3  -1  11 2194.08  212.93
   3  -1  12 3267.89  327.75
   3  -1  13 1724.14  223.71
   3   0   0   69.71   26.97
   3   0   1  652.68   56.77
   3   0   2  300.45   36.80
   3   0   3 2433.44  107.86
   3   0   4 2862.96  119.56
   3   0   5 1790.50  108.49
   3   0   6  676.70   94.05
   3   0   7  572.00   89.14
   3   0   8  213.42   69.37
   3   0   9  300.03   96.25
   3   0  10 1106.33  184.42
   3   0  11 3197.63  402.45
   3   0  12 1828.02  221.17
   3   0  13  621.70  190.04
   3   1   0 1274.95   65.60
   3   1   1   39.72   31.92
   3   1   2   53.87   37.01
   3   1   3  135.47   34.39
   3   1   4  781.22   72.92
   3   1   5  324.58   61.37
   3   1   6  532.10   82.36
   3   1   7  161.01   64.67
   3   1   8   -4.76   63.08
   3   1   9 2396.59  243.69
   3   1  10  847.92  139.31
   3   1  11 1463.91  163.10
   3   1  12  909.32  186.73
   3   2   0    8.83   29.02
   3   2   1 2382.54   96.73
   3   2   2  198.51   38.20
   3   2   3   81.68   41.90
   3   2   4  453.45   67.30
   3   2   5  446.98   74.15
   3   2   6  370.27   79.57
   3   2   7  168.08   74.06
   3   2   8 2718.63  179.76
   3   2   9  556.78  131.10
   3   2  10  219.39  109.30
   3   2  11  544.50  123.86
   3   2  12  218.49  210.23
   3   3   0 7186.31  184.42
   3   3   1 1182.51   58.54
   3   3   2  488.22   50.57
   3   3   3  121.13   34.25
   3   3   4  206.21   61.62
   3   3   5  396.33   75.10
   3   3   6   83.83   68.15
   3   3   7 1598.46  154.24
   3   3   8  227.82  110.65
   3   3   9    7.77  100.38
   3   3  10  261.30  102.78
   3   3  11  130.79  140.70
   3   4   0 3357.18  108.35
   3   4   1 1654.51   75.76
   3   4   2  246.00   45.95
   3   4   3  221.36   47.95
   3   4   4  105.61   32.10
   3   4   5  126.65   68.38
   3   4   6  112.46   74.35
   3   4   7   79.20  117.33
   3   4   8  -57.82  127.08
   3   4   9  110.13  108.56
   3   4  10 -109.98  109.98
   3   5   0 1029.09   60.50
   3   5   1  116.88   20.08
   3   5   2   52.29   17.10
   3   5   3   12.75   11.96
   3   5   4 1167.96  108.49
   3   5   5  113.35   68.06
   3   5   6  -63.47   63.47
   3   5   7   41.71  109.60
   3   5   8   50.98   96.80
   3   5   9 -100.94  100.94
   3   6   0  757.50   64.04
   3   6   1  321.99   48.76
   3   6   2   72.43   38.84
   3   6   3  534.81   81.35
   3   6   4 1504.93  123.56
   3   6   5   36.93   67.68
   3   6   6   -4.18   90.31
   3   6   7  -77.60   77.60
   3   6   8  -86.89   86.89
   3   7   0 1093.85   86.09
   3   7   1  252.67   56.12
   3   7   2  111.36   60.71
   3   7   3 3304.40  157.65
   3   7   4  588.57   96.52
   3   7   5  -58.41   86.64
   3   7   6  112.06   82.44
   3   7   7  -78.96   78.96
   3   8   0  580.77   74.05
   3   8   1  514.08   76.17
   3   8   2 2027.56  164.25
   3   8   3 1867.49  142.12
   3   8   4  642.76  156.91
   3   8   5  379.77  106.03
   3   8   6  -74.59   74.59
   3   9   0 3119.42  174.12
   3   9   1 1577.72  119.00
   3   9   2 2014.87  283.63
   3   9   3 1619.62  156.13
   3   9   4  899.79  116.24
   3   9   5   53.55   89.55
   3  10   0 1198.77  115.71
   3  10   1 2198.02  212.13
   3  10   2 2110.37  213.90
   3  10   3 1355.87  135.35
   3  10   4  378.42  164.25
   3  11   0 1840.02  139.67
   3  11   1 1657.02  147.74
   3  11   2  682.13  118.41
   3  12   0 1442.98  171.11
   3  12   1  589.47  231.42
   4 -17   4  131.51   56.18
   4 -17   5   81.83   52.91
   4 -17   6   28.15  103.28
   4 -17   7  208.25  126.70
   4 -17   8   88.80  178.14
   4 -17   9 -174.78  174.78
   4 -17  10   98.63  106.57
   4 -16   1  250.50   62.51
   4 -16   2  511.77   69.84
   4 -16   3  700.83   99.48
   4 -16   4  131.72   81.58
   4 -16   5  380.74   86.90
   4 -16   6  551.81  189.38
   4 -16   7  310.39  135.37
   4 -16   8   -7.87  169.11
   4 -16   9   13.61  115.98
   4 -16  10  -48.79   88.02
   4 -16  11   68.49  140.09
   4 -16  12   -8.87  104.57
   4 -15   0  514.29   58.38
   4 -15   1  869.51   83.95
   4 -15   2 1356.17   82.71
   4 -15   3  392.92   41.78
   4 -15   4 1015.87  149.75
   4 -15   5  476.48   87.38
   4 -15   6  211.56  135.13
   4 -15   7  131.93   62.31
   4 -15   8  164.23   74.57
   4 -15   9  -65.58   65.58
   4 -15  10   49.22   42.53
   4 -15  11    8.72   49.82
   4 -15  12  -68.15   77.90
   4 -15  13  -65.02  117.48
   4 -14   0  915.44   41.10
   4 -14   1 1336.23   74.52
   4 -14   2  582.09   53.32
   4 -14   3 1185.66   85.57
   4 -14   4  291.96   31.45
   4 -14   5  163.82   52.04
   4 -14   6   33.62   54.85
   4 -14   7   73.66   61.55
   4 -14   8  115.91   93.28
   4 -14   9  -37.42   37.42
   4 -14  10   39.61   53.88
   4 -14  11   20.92   76.97
   4 -14  12  -36.64   75.29
   4 -14  13   12.59   93.06
   4 -14  14  -20.99   94.32
   4 -13   0 2558.86   90.75
   4 -13   1 2537.64   80.24
   4 -13   2 2894.82  137.17
   4 -13   3  910.30   68.14
   4 -13   4 1024.09  108.56
   4 -13   5  390.04   69.29
   4 -13   6  552.79   77.87
   4 -13   7  454.11   52.98
   4 -13   8  162.24   53.78
   4 -13   9  535.02   83.46
   4 -13  10  536.00   81.54
   4 -13  11  359.77   83.45
   4 -13  12  -49.84   70.51
   4 -13  13    9.50   92.65
   4 -13  14  -16.09   25.76
   4 -12   0 5572.14  155.80
   4 -12   1 3518.58  125.96
   4 -12   2 1518.09  114.48
   4 -12   3 1629.25   97.66
   4 -12   4 1546.63   82.48
   4 -12   5  849.47   59.29
   4 -12   6 1094.48   76.91
   4 -12   7  470.26   61.28
   4 -12   8 1053.41  118.75
   4 -12   9 1056.39  105.60
   4 -12  10  834.97  100.11
   4 -12  11  498.58   92.78
   4 -12  12  110.80   86.80
   4 -12  13    4.84   10.78
   4 -12  14    0.00    5.45
   4 -12  15   32.62   22.57
   4 -11   0 3459.96  105.97
   4 -11   1 2309.04   97.74
   4 -11   2 3552.68  164.21
   4 -11   3 2683.03  176.57
   4 -11   4 2364.59   96.04
   4 -11   5 2060.27   95.65
   4 -11   6  895.02   91.88
   4 -11   7 1754.14  118.83
   4 -11   8 1393.25  115.97
   4 -11   9 1084.59  124.88
   4 -11  10 1204.64  129.88
   4 -11  11  976.30  117.35
   4 -11  12  109.16   34.77
   4 -11  13   49.48   22.10
   4 -11  14   76.88   52.39
   4 -11  15   10.05   25.53
   4 -10   0 3465.40  152.37
   4 -10   1 4909.42  331.85
   4 -10   2 3694.53  176.51
   4 -10   3 3108.44  118.36
   4 -10   4 4624.16  155.23
   4 -10   5 2017.70   94.05
   4 -10   6 2383.09  110.03
   4 -10   7 1302.51  108.21
   4 -10   8  975.96   93.09
   4 -10   9 1257.44  109.28
   4 -10  10  678.41   95.75
   4 -10  11 1154.07  112.81
   4 -10  12  249.71   47.61
   4 -10  13  125.50   38.34
   4 -10  14   10.83   47.62
   4 -10  15  -18.87   50.88
   4  -9   0 7043.90  226.63
   4  -9   1 6403.40  198.55
   4  -9   2 5447.05  226.04
   4  -9   3 5718.87  139.96
   4  -9   4 8528.79  247.58
   4  -9   5 3556.82  123.48
   4  -9   6 2037.54  105.53
   4  -9   7 1877.97  111.99
   4  -9   8 2752.33  140.68
   4  -9   9 2104.12  172.94
   4  -9  10 1375.90  110.21
   4  -9  11 2736.92  155.44
   4  -9  12  592.65   93.01
   4  -9  13  475.35   87.09
   4  -9  14  357.47   92.99
   4  -9  15   13.08  117.19
   4  -8   0 7419.56  205.54
   4  -8   1 8758.63  247.33
   4  -8   2 6802.45  234.31
   4  -8   311821.60  290.95
   4  -8   4 6822.82  181.00
   4  -8   5 2882.86  112.36
   4  -8   6 2569.80  117.49
   4  -8   7 3084.46  139.94
   4  -8   8 2743.18  139.12
   4  -8   9 1538.13  110.02
   4  -8  10 2548.69  139.87
   4  -8  11 2753.60  159.90
   4  -8  12 1087.70  135.37
   4  -8  13  777.16  123.84
   4  -8  14  356.54  157.34
   4  -8  15   64.59  145.03
   4  -7   0 9429.79  242.72
   4  -7   1 9928.89  265.79
   4  -7   215094.70  422.02
   4  -7   3 5972.68  182.25
   4  -7   4 7908.58  201.27
   4  -7   5 5000.06  154.36
   4  -7   6 3326.40  135.22
   4  -7   7 3816.97  163.66
   4  -7   8 1935.80  116.03
   4  -7   9 2768.18  151.55
   4  -7  10 2068.64  141.04
   4  -7  11 3763.15  278.67
   4  -7  12 1715.67  191.20
   4  -7  13 1084.24  177.96
   4  -7  14   59.58  126.14
   4  -7  15 -141.02  182.35
   4  -6   0 8425.31  218.35
   4  -6   114705.10  378.44
   4  -6   2 7733.92  206.52
   4  -6   3 7003.43  178.23
   4  -6   413497.00  305.31
   4  -6   5 4815.66  166.85
   4  -6   6 5684.29  205.66
   4  -6   7 3292.32  150.93
   4  -6   8 2582.20  135.01
   4  -6   9 2767.13  157.07
   4  -6  10 3128.67  170.84
   4  -6  11 4239.98  229.45
   4  -6  12 1895.37  200.82
   4  -6  13  344.34  152.94
   4  -6  14  298.76  146.91
   4  -6  15  344.94  231.92
   4  -5   0 7071.57  221.68
   4  -5   1 8162.35  240.50
   4  -5   2 9975.63  225.44
   4  -5   311585.90  260.25
   4  -5   411134.90  283.78
   4  -5   511211.00  289.59
   4  -5   6 6425.78  192.41
   4  -5   7 2575.90  116.63
   4  -5   8 4366.11  162.34
   4  -5   9 4440.41  191.87
   4  -5  10 2907.46  161.80
   4  -5  11 4632.92  289.29
   4  -5  12 1493.86  181.86
   4  -5  13  271.33  180.44
   4  -5  14  538.12  208.45
   4  -4   0 6462.58  181.06
   4  -4   1 9587.56  221.05
   4  -4   210871.90  251.79
   4  -4   311119.70  259.52
   4  -4   418773.90  433.11
   4  -4   510291.10  261.66
   4  -4   6 3376.02  135.84
   4  -4   7 6222.30  195.92
   4  -4   8 4534.61  201.83
   4  -4   9 3492.90  166.30
   4  -4  10 3519.69  207.54
   4  -4  11 4411.02  273.64
   4  -4  12  667.43  161.64
   4  -4  13 1203.83  185.17
   4  -4  14   73.43  191.16
   4  -3   0 3012.13  109.51
   4  -3   1 3982.74  108.48
   4  -3   211401.40  246.03
   4  -3   310811.80  273.03
   4  -3   415325.50  357.16
   4  -3   5 4681.45  149.56
   4  -3   6 6245.73  191.26
   4  -3   7 3807.83  142.29
   4  -3   8 3305.54  149.16
   4  -3   9 3776.27  340.43
   4  -3  10 3496.51  223.49
   4  -3  11 1782.55  172.97
   4  -3  12 1054.88  260.22
   4  -3  13 1055.38  245.85
   4  -2   0 6089.74  146.56
   4  -2   118094.80  363.17
   4  -2   218642.70  425.42
   4  -2   317065.20  363.41
   4  -2   417663.30  443.08
   4  -2   510434.60  271.93
   4  -2   6 6137.49  211.60
   4  -2   7 4990.80  209.83
   4  -2   8 5653.94  241.92
   4  -2   9 5338.85  244.51
   4  -2  10 2326.20  207.71
   4  -2  11 1605.40  206.55
   4  -2  12 1980.23  200.61
   4  -2  13 1905.36  250.30
   4  -1   013268.90  260.55
   4  -1   118776.80  372.44
   4  -1   216441.80  376.58
   4  -1   318286.20  391.50
   4  -1   412909.30  297.64
   4  -1   5 7156.48  214.05
   4  -1   6 5603.34  232.62
   4  -1   7 6824.80  263.36
   4  -1   8 6182.49  261.77
   4  -1   9 5189.35  248.92
   4  -1  10 1403.20  158.45
   4  -1  11 3495.61  279.38
   4  -1  12 2698.75  228.35
   4  -1  13 2221.55  326.67
   4   0   016076.70  308.51
   4   0   115497.40  334.29
   4   0   224806.90  586.82
   4   0   3 8085.51  199.47
   4   0   4 9766.68  265.56
   4   0   5 7334.54  223.76
   4   0   6 7331.92  250.57
   4   0   7 7590.80  262.96
   4   0   8 8044.07  364.93
   4   0   9 2361.46  176.23
   4   0  10 3748.14  231.06
   4   0  11 2783.58  206.47
   4   0  12 1944.12  239.38
   4   1   015147.40  310.86
   4   1   128254.20  572.09
   4   1   210815.40  275.98
   4   1   3 7611.23  219.49
   4   1   4 9132.02  259.37
   4   1   5 9313.32  283.84
   4   1   6 7727.33  274.17
   4   1   7 9272.23  301.48
   4   1   8 4842.94  222.94
   4   1   9 4655.12  288.65
   4   1  10 2143.38  197.87
   4   1  11 2247.69  244.24
   4   2   016121.20  348.70
   4   2   1 9624.12  224.19
   4   2   2 7753.55  219.66
   4   2   3 6071.71  192.32
   4   2   4 9613.77  286.51
   4   2   5 9225.55  286.95
   4   2   6 8907.68  289.51
   4   2   7 9976.74  386.02
   4   2   8 5074.64  277.95
   4   2   9 2894.90  217.60
   4   2  10 2178.25  186.18
   4   2  11 2553.12  241.64
   4   3   0 9747.01  221.12
   4   3   1 8176.94  199.47
   4   3   2 7385.18  215.49
   4   3   3 7791.64  227.33
   4   3   4 8730.02  248.69
   4   3   5 7984.95  244.67
   4   3   612979.50  451.65
   4   3   7 4684.50  263.10
   4   3   8 3337.68  318.02
   4   3   9 2708.06  197.91
   4   3  10 2459.79  236.03
   4   4   0 7479.20  190.15
   4   4   1 7420.90  202.66
   4   4   2 8054.08  237.74
   4   4   3 6659.62  207.26
   4   4   4 7447.20  231.37
   4   4   513679.90  436.22
   4   4   6 4689.95  231.22
   4   4   7 4340.27  237.16
   4   4   8 2794.54  254.90
   4   4   9 2099.59  292.88
   4   5   0 5864.86  185.17
   4   5   1 7043.19  205.92
   4   5   2 6553.19  196.18
   4   5   3 5890.16  201.47
   4   5   4 9598.20  299.74
   4   5   5 4704.39  224.58
   4   5   6 3666.45  203.93
   4   5   7 3408.97  187.68
   4   5   8 2533.44  206.25
   4   6   0 7639.38  215.53
   4   6   1 7368.76  214.82
   4   6   2 7320.65  312.32
   4   6   3 5446.83  244.76
   4   6   4 4948.33  211.00
   4   6   5 4211.79  225.49
   4   6   6 3479.89  189.44
   4   6   7 2750.79  219.95
   4   7   0 7658.67  232.45
   4   7   1 7954.79  264.56
   4   7   2 3102.81  158.16
   4   7   3 4827.27  209.43
   4   7   4 3826.62  211.17
   4   7   5 3376.84  183.80
   4   7   6 2788.08  205.26
   4   8   0 6230.35  210.40
   4   8   1 1684.29  138.16
   4   8   2 4040.51  190.62
   4   8   3 3093.56  187.10
   4   8   4 2719.88  169.16
   4   8   5 2627.58  244.35
   4   9   0 2039.29  139.53
   4   9   1 4039.00  322.95
   4   9   2 3551.06  200.32
   4   9   3 2856.10  177.16
   4   9   4 3033.78  211.80
   4  10   0 2267.43  177.37
   4  10   1 2631.04  405.82
   4  10   2 2365.56  165.50
   4  11   0 2013.52  220.40
   4  11   1 2153.72  174.09
   5 -17   6 2605.57  292.10
   5 -17   7 2705.36  173.67
   5 -17   8 3729.25  282.84
   5 -16   2 3535.79  262.63
   5 -16   3 3123.29  276.43
   5 -16   4 4814.32  343.21
   5 -16   5 3715.47  447.31
   5 -16   6 3782.77  241.88
   5 -16   7 4469.16  180.61
   5 -16   8 4703.23  206.25
   5 -16   9 3295.49  208.96
   5 -16  10 2072.58  427.60
   5 -16  11 2500.12  170.99
   5 -15   0 2436.53  101.34
   5 -15   1 3465.20  200.50
   5 -15   2 3751.65  237.88
   5 -15   3 3757.06  394.54
   5 -15   4 2966.87  536.18
   5 -15   5 4465.44  301.86
   5 -15   6 5416.40  183.93
   5 -15   7 4934.55  199.07
   5 -15   8 3505.99  164.53
   5 -15   9 2672.65  225.20
   5 -15  10 2954.34  156.30
   5 -15  11 2786.35  339.09
   5 -15  12 3499.25  225.61
   5 -14   0 2540.47  152.73
   5 -14   1 4610.09  213.83
   5 -14   2 1975.69  217.10
   5 -14   3 3221.16  245.58
   5 -14   4 5115.18  309.29
   5 -14   5 5093.26  282.78
   5 -14   6 5015.26  197.54
   5 -14   7 4223.85  157.94
   5 -14   8 3381.85  144.07
   5 -14   9 3890.38  259.46
   5 -14  10 2851.32  178.91
   5 -14  11 3031.06  171.33
   5 -14  12 3125.85  207.23
   5 -14  13 3048.44  221.79
   5 -13   0 5131.12  210.02
   5 -13   1 2758.58  243.09
   5 -13   2 5233.59  270.49
   5 -13   3 6422.69  235.95
   5 -13   4 5922.22  202.72
   5 -13   5 6549.57  203.85
   5 -13   6 6660.33  383.03
   5 -13   7 4989.29  189.09
   5 -13   8 4761.25  184.77
   5 -13   9 4104.91  198.73
   5 -13  10 4035.03  221.85
   5 -13  11 3046.41  163.53
   5 -13  12 4103.19  218.32
   5 -13  13 3284.28  191.58
   5 -12   0 2935.37  256.72
   5 -12   1 6521.37  256.68
   5 -12   2 6293.44  280.93
   5 -12   3 5850.75  254.04
   5 -12   4 5607.46  247.00
   5 -12   5 6896.36  237.38
   5 -12   6 6165.32  262.28
   5 -12   7 5788.46  195.72
   5 -12   8 5606.91  203.13
   5 -12   9 6483.84  233.11
   5 -12  10 4428.60  183.65
   5 -12  11 3826.17  183.48
   5 -12  12 4255.80  214.34
   5 -12  13 3628.97  202.62
   5 -12  14 3254.22  212.81
   5 -11   0 6831.40  217.14
   5 -11   1 5804.12  225.91
   5 -11   2 5396.81  204.49
   5 -11   3 4419.32  183.67
   5 -11   4 5209.18  201.85
   5 -11   5 6614.77  212.07
   5 -11   6 5943.98  183.12
   5 -11   7 6581.86  209.53
   5 -11   8 6704.27  222.53
   5 -11   9 5188.35  194.07
   5 -11  10 4200.10  194.80
   5 -11  11 3451.17  190.59
   5 -11  12 4013.40  216.06
   5 -11  13 3683.86  243.45
   5 -11  14 3974.68  275.49
   5 -10   0 3689.76  158.07
   5 -10   1 2485.61  115.92
   5 -10   2 2006.92  111.56
   5 -10   3 1767.41  136.74
   5 -10   4 2841.18  145.00
   5 -10   5 3087.20  189.27
   5 -10   6 4580.78  165.92
   5 -10   7 4778.48  180.03
   5 -10   8 4634.26  170.42
   5 -10   9 3148.29  143.85
   5 -10  10 2232.84  141.19
   5 -10  11 2879.62  215.94
   5 -10  12 2871.14  211.57
   5 -10  13 3824.66  235.44
   5 -10  14 3042.22  258.60
   5  -9   0 5851.84  184.80
   5  -9   1 4241.62  147.29
   5  -9   2 3156.65  156.81
   5  -9   3 5555.00  217.25
   5  -9   4 3986.27  147.10
   5  -9   5 9262.71  256.50
   5  -9   6 9320.17  259.39
   5  -9   7 7376.60  230.63
   5  -9   8 6451.38  215.48
   5  -9   9 3871.66  175.17
   5  -9  10 4787.30  244.67
   5  -9  11 3775.67  234.46
   5  -9  12 4563.80  360.75
   5  -9  13 3930.53  242.57
   5  -9  14 2833.94  240.94
   5  -8   0 4327.09  147.59
   5  -8   1 2352.12  125.81
   5  -8   2 3717.94  170.31
   5  -8   3 3689.55  140.04
   5  -8   4 6019.91  191.64
   5  -8   5 9015.95  252.17
   5  -8   6 7592.75  223.09
   5  -8   7 5850.67  196.46
   5  -8   8 5093.12  194.70
   5  -8   9 4467.21  215.15
   5  -8  10 4940.31  241.91
   5  -8  11 4781.14  269.30
   5  -8  12 4121.96  273.09
   5  -8  13 2930.85  254.98
   5  -8  14 2211.80  301.86
   5  -7   0 3112.80  142.38
   5  -7   1 1700.29  110.14
   5  -7   2 4038.86  164.51
   5  -7   3 5378.39  174.37
   5  -7   4 5935.78  192.88
   5  -7   5 6415.55  207.78
   5  -7   6 6018.47  195.43
   5  -7   7 4327.72  193.39
   5  -7   8 4040.10  191.85
   5  -7   9 5073.17  219.24
   5  -7  10 4391.68  313.76
   5  -7  11 4118.09  284.82
   5  -7  12 3219.51  261.90
   5  -7  13 2038.46  234.66
   5  -7  14 2069.76  259.11
   5  -6   0 1448.98  108.06
   5  -6   1 5413.49  193.38
   5  -6   2 4640.71  154.38
   5  -6   3 6056.29  154.93
   5  -6   4 3928.93  121.24
   5  -6   5 5770.20  222.67
   5  -6   6 4758.81  188.59
   5  -6   7 2793.12  142.33
   5  -6   8 4787.58  208.68
   5  -6   9 4605.03  249.36
   5  -6  10 3727.82  230.98
   5  -6  11 3631.13  245.44
   5  -6  12 2551.91  233.38
   5  -6  13 1202.14  177.98
   5  -6  14 2330.50  399.83
   5  -5   0 4675.74  151.01
   5  -5   1 2400.31  154.85
   5  -5   2 3755.70  124.32
   5  -5   3 3515.93  115.35
   5  -5   4 2905.22  118.68
   5  -5   5 4066.43  173.27
   5  -5   6 2220.50  122.22
   5  -5   7 2678.45  133.65
   5  -5   8 3538.54  193.55
   5  -5   9 3959.06  198.89
   5  -5  10 3935.76  210.72
   5  -5  11 2905.43  223.53
   5  -5  12 1310.79  197.55
   5  -5  13 1193.19  237.14
   5  -4   0 2011.62   97.52
   5  -4   1 1069.26   65.23
   5  -4   2 2529.16  102.91
   5  -4   3 2379.84   98.46
   5  -4   4 1447.20   90.05
   5  -4   5 1525.18  111.46
   5  -4   6 1415.91  111.29
   5  -4   7 1712.35  147.10
   5  -4   8 2942.25  170.29
   5  -4   9 3480.89  189.94
   5  -4  10 2516.28  178.26
   5  -4  11 1923.42  193.39
   5  -4  12 1047.27  167.82
   5  -4  13 1391.86  282.27
   5  -3   0  179.72   36.86
   5  -3   1  591.42   52.41
   5  -3   2  585.27   60.61
   5  -3   3  903.99   79.77
   5  -3   4  544.01   59.57
   5  -3   5  167.37   50.28
   5  -3   6 1068.63  105.59
   5  -3   7 1801.82  154.30
   5  -3   8 2521.92  160.12
   5  -3   9 2649.14  181.22
   5  -3  10 2430.98  184.53
   5  -3  11  841.94  174.97
   5  -3  12 1323.86  178.08
   5  -2   0 2224.95   86.82
   5  -2   1 1549.10   78.89
   5  -2   2 2209.98  111.95
   5  -2   3 2895.47  133.76
   5  -2   4  197.89   53.24
   5  -2   5 1333.58  101.91
   5  -2   6 1836.56  122.51
   5  -2   7 1861.11  130.57
   5  -2   8 2956.53  176.39
   5  -2   9 2636.39  181.56
   5  -2  10 1197.09  144.73
   5  -2  11 1286.10  162.14
   5  -2  12 1059.01  263.47
   5  -1   0 1195.22   62.90
   5  -1   1 1518.78   87.96
   5  -1   2 1911.31  112.59
   5  -1   3  614.83   70.65
   5  -1   4  872.83   96.13
   5  -1   5 1381.17  105.70
   5  -1   6 1468.75  112.20
   5  -1   7 2011.88  135.92
   5  -1   8 2815.40  186.78
   5  -1   9 1609.03  153.72
   5  -1  10  939.31  136.19
   5  -1  11  819.31  166.52
   5   0   0  607.65   37.65
   5   0   1 1057.93   73.74
   5   0   2  829.53   80.04
   5   0   3 1082.12  102.17
   5   0   4  647.12   91.93
   5   0   5  635.84   75.73
   5   0   6 1467.83  112.29
   5   0   7 1546.44  142.86
   5   0   8 1302.67  138.24
   5   0   9  602.87  153.99
   5   0  10  626.93  139.82
   5   0  11  536.92  164.15
   5   1   0   12.85    1.02
   5   1   1  876.46   67.37
   5   1   2  432.62   70.05
   5   1   3  295.00   69.77
   5   1   4  147.19   72.55
   5   1   5  609.43   99.24
   5   1   6  727.09  108.44
   5   1   7  632.58  112.41
   5   1   8  178.77  102.37
   5   1   9  286.82  116.32
   5   1  10  223.05  151.53
   5   2   0 1093.02   71.25
   5   2   1  728.89   81.41
   5   2   2  516.94   70.06
   5   2   3  282.24   76.36
   5   2   4  228.12   78.78
   5   2   5  336.45   89.84
   5   2   6  858.46  134.19
   5   2   7  137.98  105.39
   5   2   8  246.19  107.36
   5   2   9  195.22  138.05
   5   3   0 1143.97  134.99
   5   3   1  540.08   80.54
   5   3   2  200.22   64.24
   5   3   3  182.97   73.47
   5   3   4  192.35   99.78
   5   3   5  182.91   93.56
   5   3   6   42.81  110.49
   5   3   7  -28.25  102.05
   5   3   8  -72.01   85.33
   5   3   9  131.48  124.99
   5   4   0 1445.43  152.25
   5   4   1  431.13   79.60
   5   4   2  786.02  170.24
   5   4   3  401.91   91.81
   5   4   4  274.39  118.80
   5   4   5   74.03  103.98
   5   4   6   35.41  113.51
   5   4   7  -77.00   77.00
   5   4   8  -64.55  102.67
   5   5   0 1059.70   96.95
   5   5   1 1320.83  111.18
   5   5   2  910.90  135.10
   5   5   3  723.24  114.80
   5   5   4  282.38  114.30
   5   5   5  -20.27   94.40
   5   5   6  -74.24   74.24
   5   5   7  -94.94  106.17
   5   6   0 1983.17  134.45
   5   6   1 1751.90  165.62
   5   6   2 1105.81  129.22
   5   6   3  551.01  148.61
   5   6   4  227.12  102.98
   5   6   5   -1.15  121.11
   5   6   6  -89.05   89.05
   5   7   0 2433.73  284.54
   5   7   1 1615.19  145.81
   5   7   2  868.38  159.18
   5   7   3  524.70  120.51
   5   7   4  489.17  118.68
   5   7   5  159.93  132.80
   5   8   0 1577.50  150.03
   5   8   1 1439.51  207.66
   5   8   2  884.32  124.06
   5   8   3  634.00  131.51
   5   9   0 1039.80  149.28
   5   9   1 1040.70  134.13
   5   9   2  577.34  126.20
   5  10   0 1045.17  139.29
   5  10   1  972.84  172.71
   6 -16   3   83.87  112.67
   6 -16   4   -7.06   85.38
   6 -16   5   34.43  178.39
   6 -16   6  114.19  108.08
   6 -16   7   45.92  109.24
   6 -16   8    7.60   44.75
   6 -16   9  -59.66   59.66
   6 -15   0  634.65  100.89
   6 -15   1   -5.36   99.77
   6 -15   2  368.58   61.13
   6 -15   3   20.80   60.89
   6 -15   4  355.61   70.31
   6 -15   5  594.22  224.93
   6 -15   6  373.08   65.43
   6 -15   7   70.65   42.21
   6 -15   8   49.13   58.57
   6 -15   9    0.11    0.67
   6 -15  10   -0.29    1.14
   6 -15  11    8.54    7.32
   6 -14   0  274.43   72.98
   6 -14   1  469.43   71.68
   6 -14   2  252.19   62.41
   6 -14   3  804.41  123.39
   6 -14   4  892.69   96.81
   6 -14   5  667.37   87.44
   6 -14   6  405.57  197.20
   6 -14   7   94.13   59.68
   6 -14   8   70.18   14.65
   6 -14   9   18.86    5.13
   6 -14  10    3.22    4.31
   6 -14  11   -0.30    8.42
   6 -14  12  -28.53  150.74
   6 -13   0  652.60   83.52
   6 -13   1 1275.43  116.81
   6 -13   2 1588.17  123.24
   6 -13   3 1535.20  140.68
   6 -13   4 1273.60  139.60
   6 -13   5  934.73  207.47
   6 -13   6  794.45  100.52
   6 -13   7  406.30   40.76
   6 -13   8  412.35   44.11
   6 -13   9  288.00   38.64
   6 -13  10  212.66   81.35
   6 -13  11   47.86   55.35
   6 -13  12    6.83   11.76
   6 -12   0 2487.62  148.95
   6 -12   1 2627.82  129.40
   6 -12   2 1935.73  111.32
   6 -12   3 1737.17  136.45
   6 -12   4 1369.42  124.37
   6 -12   5 1408.08  153.93
   6 -12   6 1131.73   76.50
   6 -12   7  699.58   55.62
   6 -12   8  779.54   70.90
   6 -12   9  502.62   69.97
   6 -12  10  390.15  114.31
   6 -12  11  123.02   40.83
   6 -12  12  -74.42  142.41
   6 -12  13  -39.27  133.53
   6 -11   0 3651.18  183.72
   6 -11   1 3477.84  144.27
   6 -11   2 2633.10  165.43
   6 -11   3 2939.44  161.74
   6 -11   4 2603.89  178.63
   6 -11   5 1915.26  134.09
   6 -11   6 1758.93   75.74
   6 -11   7 1956.78   88.00
   6 -11   8 1435.98   96.44
   6 -11   9 1342.27  138.62
   6 -11  10  439.72   89.75
   6 -11  11  180.95   95.57
   6 -11  12   39.98  130.43
   6 -11  13  -50.50  183.77
   6 -10   0 6530.22  212.08
   6 -10   1 7233.21  253.73
   6 -10   2 7714.63  265.21
   6 -10   3 7222.29  313.35
   6 -10   4 5053.03  211.69
   6 -10   5 4760.93  163.84
   6 -10   6 4849.12  152.53
   6 -10   7 4107.29  147.54
   6 -10   8 4322.36  160.72
   6 -10   9 1662.33  235.57
   6 -10  10 1066.24  161.53
   6 -10  11  873.83  143.60
   6 -10  12  137.37  126.50
   6 -10  13  199.63  129.94
   6  -9   0 2764.50  164.23
   6  -9   1 4243.13  230.22
   6  -9   2 4301.28  265.74
   6  -9   3 1873.74  109.67
   6  -9   4 1682.51   82.94
   6  -9   5 1602.20   75.92
   6  -9   6 1511.65   70.36
   6  -9   7 1590.72   74.31
   6  -9   8  987.74  145.38
   6  -9   9 1081.17  137.45
   6  -9  10  463.17  131.02
   6  -9  11  454.47  112.52
   6  -9  12   84.89  106.17
   6  -9  13   21.46  150.21
   6  -8   0 5782.10  237.34
   6  -8   1 8004.85  390.51
   6  -8   2 4067.35  227.18
   6  -8   3 4072.25  158.39
   6  -8   4 2882.07  136.48
   6  -8   5 2652.67  101.87
   6  -8   6 2087.75  109.42
   6  -8   7 1889.49  192.17
   6  -8   8 4964.43  476.92
   6  -8   9 1171.55  144.36
   6  -8  10  629.35  163.56
   6  -8  11  372.47  131.86
   6  -8  12 -101.54  125.38
   6  -8  13 -129.86  129.86
   6  -7   0 9889.01  310.10
   6  -7   1 8009.96  247.57
   6  -7   2 6941.28  241.43
   6  -7   3 4726.61  153.49
   6  -7   4 4525.82  130.40
   6  -7   5 2589.81  107.05
   6  -7   6 3174.74  160.71
   6  -7   7 4565.46  215.53
   6  -7   8 3708.36  442.32
   6  -7   9 1504.12  185.76
   6  -7  10 1005.71  172.28
   6  -7  11  371.61  285.67
   6  -7  12  175.26  147.49
   6  -7  13    4.53  182.99
   6  -6   010207.50  266.89
   6  -6   111094.60  285.36
   6  -6   2 7639.90  203.40
   6  -6   3 6859.58  152.95
   6  -6   4 4178.81  138.05
   6  -6   5 4991.91  160.88
   6  -6   6 6640.55  229.06
   6  -6   7 4878.34  220.83
   6  -6   8 4163.26  323.90
   6  -6   9 1884.44  183.98
   6  -6  10  770.29  159.56
   6  -6  11  742.60  141.00
   6  -6  12  339.16  150.70
   6  -5   011540.60  298.92
   6  -5   112561.20  374.02
   6  -5   210463.10  240.58
   6  -5   3 6728.80  191.90
   6  -5   4 8132.04  243.27
   6  -5   5 7861.09  235.19
   6  -5   6 6899.32  227.44
   6  -5   7 4312.10  243.15
   6  -5   8 3992.92  270.44
   6  -5   9 1746.19  165.81
   6  -5  10 1130.22  147.89
   6  -5  11 1032.56  160.16
   6  -5  12  862.63  170.26
   6  -4   012014.20  303.36
   6  -4   114936.10  310.18
   6  -4   211227.10  275.09
   6  -4   310739.20  315.34
   6  -4   410368.70  314.12
   6  -4   5 8376.54  248.92
   6  -4   6 5983.52  263.53
   6  -4   7 3811.94  213.81
   6  -4   8 3102.42  180.89
   6  -4   9 1426.27  197.29
   6  -4  10 1674.97  162.45
   6  -4  11 1730.16  198.31
   6  -4  12 1161.42  220.38
   6  -3   010688.60  253.76
   6  -3   118742.30  379.76
   6  -3   212653.60  284.44
   6  -3   311112.50  310.75
   6  -3   410389.40  330.24
   6  -3   5 7767.31  244.19
   6  -3   6 5656.56  202.75
   6  -3   7 4344.32  222.10
   6  -3   8 2229.84  196.47
   6  -3   9 2650.14  244.73
   6  -3  10 2145.26  238.04
   6  -3  11 2128.64  180.10
   6  -2   013450.90  304.21
   6  -2   111521.60  256.84
   6  -2   211062.50  291.84
   6  -2   3 9188.40  286.18
   6  -2   4 7681.12  255.19
   6  -2   5 6160.30  231.82
   6  -2   6 5266.68  208.85
   6  -2   7 2435.51  238.60
   6  -2   8 2903.89  167.81
   6  -2   9 2759.13  224.55
   6  -2  10 2194.42  270.09
   6  -2  11 2009.81  216.47
   6  -1   0 8335.95  202.16
   6  -1   111934.10  305.20
   6  -1   210437.20  300.25
   6  -1   3 8777.64  278.43
   6  -1   4 7240.73  251.27
   6  -1   5 6612.21  313.69
   6  -1   6 5227.37  274.88
   6  -1   7 3187.30  256.06
   6  -1   8 3081.84  187.00
   6  -1   9 2444.49  231.28
   6  -1  10 2518.59  289.46
   6   0   011179.50  308.82
   6   0   111536.00  345.74
   6   0   210284.40  338.95
   6   0   3 8892.19  264.35
   6   0   4 7582.50  263.97
   6   0   5 8227.41  350.55
   6   0   6 5375.33  251.22
   6   0   7 3577.74  267.09
   6   0   8 3268.67  200.30
   6   0   9 3083.62  248.94
   6   0  10 1617.21  189.59
   6   1   011464.90  284.18
   6   1   110903.30  295.52
   6   1   211426.60  329.62
   6   1   3 9729.20  287.06
   6   1   411058.80  340.91
   6   1   5 7266.93  318.16
   6   1   6 5396.22  395.21
   6   1   7 3965.77  248.28
   6   1   8 3194.86  279.52
   6   1   9 1831.21  192.23
   6   2   0 5969.55  206.36
   6   2   1 6674.26  221.10
   6   2   2 6727.61  247.11
   6   2   3 8350.56  320.38
   6   2   4 5792.88  262.72
   6   2   5 4947.04  253.31
   6   2   6 4599.49  569.00
   6   2   7 2728.70  261.21
   6   2   8 2074.75  204.92
   6   3   0 6640.59  210.10
   6   3   1 6993.51  233.34
   6   3   2 8000.95  280.63
   6   3   3 5821.88  262.66
   6   3   4 5937.11  294.32
   6   3   5 5457.90  300.32
   6   3   6 3386.19  226.62
   6   3   7 2420.30  275.59
   6   4   0 7216.68  226.96
   6   4   1 6275.04  236.17
   6   4   2 5425.21  263.33
   6   4   3 5461.21  298.89
   6   4   4 5442.53  274.40
   6   4   5 3466.19  232.24
   6   4   6 3022.35  314.54
   6   5   0 4320.86  187.98
   6   5   1 4755.41  219.05
   6   5   2 4846.45  255.53
   6   5   3 4976.47  236.13
   6   5   4 4200.52  263.76
   6   5   5 3296.75  259.50
   6   6   0 4676.43  236.98
   6   6   1 4551.93  465.33
   6   6   2 4049.54  289.94
   6   6   3 4153.86  222.77
   6   6   4 3503.84  249.80
   6   7   0 3858.75  251.01
   6   7   1 3215.62  244.34
   6   7   2 4287.68  235.38
   6   7   3 2818.01  227.14
   6   8   0 2925.37  229.74
   6   8   1 3353.80  224.81
   6   8   2 2682.45  221.31
   6   9   0 1977.52  234.76
   7 -15   1 2536.45  189.05
   7 -15   2 3414.77  203.66
   7 -15   3 3513.42  236.46
   7 -15   4 3081.29  272.89
   7 -15   5 3291.48  325.26
   7 -15   6 2885.91  268.53
   7 -15   7 2780.70  361.17
   7 -15   8 2550.03  155.46
   7 -14   0 2217.28  156.30
   7 -14   1 2526.95  132.63
   7 -14   2 3383.25  185.66
   7 -14   3 4032.59  194.85
   7 -14   4 4191.16  199.64
   7 -14   5 3939.37  201.00
   7 -14   6 3487.19  230.00
   7 -14   7 2890.26  238.79
   7 -14   8 2433.76  153.36
   7 -14   9 2747.35  183.05
   7 -14  10 3379.14  198.72
   7 -13   0 3550.26  154.29
   7 -13   1 3263.77  179.81
   7 -13   2 5331.32  260.96
   7 -13   3 6237.24  247.47
   7 -13   4 6285.78  264.88
   7 -13   5 5451.19  244.09
   7 -13   6 4041.94  212.99
   7 -13   7 3782.29  177.75
   7 -13   8 3300.82  202.38
   7 -13   9 3511.26  198.58
   7 -13  10 4582.63  223.14
   7 -13  11 2468.95  232.40
   7 -12   0 3464.06  186.18
   7 -12   1 4052.41  199.07
   7 -12   2 5463.83  231.46
   7 -12   3 7797.85  277.57
   7 -12   4 5375.23  224.01
   7 -12   5 4470.59  224.58
   7 -12   6 3940.78  178.12
   7 -12   7 4242.49  216.94
   7 -12   8 3148.88  215.91
   7 -12   9 5232.14  250.24
   7 -12  10 3644.80  207.32
   7 -12  11 3370.85  223.71
   7 -11   0 4336.63  207.96
   7 -11   1 4171.66  206.03
   7 -11   2 6977.43  258.20
   7 -11   3 6061.33  236.11
   7 -11   4 4413.34  202.26
   7 -11   5 5043.41  243.10
   7 -11   6 5086.54  207.03
   7 -11   7 4497.44  193.14
   7 -11   8 3805.09  211.12
   7 -11   9 4747.22  224.36
   7 -11  10 4647.47  233.55
   7 -11  11 2602.34  204.90
   7 -10   0 6507.20  253.53
   7 -10   1 5895.08  236.44
   7 -10   2 6228.04  245.48
   7 -10   3 5940.76  236.88
   7 -10   4 5790.69  239.70
   7 -10   5 6569.46  222.64
   7 -10   6 6313.94  265.97
   7 -10   7 4735.47  197.96
   7 -10   8 4884.41  228.72
   7 -10   9 4682.15  213.48
   7 -10  10 2875.28  194.78
   7 -10  11 1911.73  194.71
   7  -9   0 2055.72  152.37
   7  -9   1 1006.43  119.22
   7  -9   2 1576.56  139.04
   7  -9   3 2070.03  143.62
   7  -9   4 2567.91  135.97
   7  -9   5 3531.91  160.62
   7  -9   6 2275.11  157.42
   7  -9   7 5210.81  215.39
   7  -9   8 2268.24  169.10
   7  -9   9 1660.00  148.32
   7  -9  10 1383.72  165.43
   7  -9  11 1385.00  171.11
   7  -8   0 3123.69  184.85
   7  -8   1 1489.33  137.36
   7  -8   2 2817.25  191.77
   7  -8   3 3164.98  175.51
   7  -8   4 3884.94  173.88
   7  -8   5 2903.56  173.42
   7  -8   6 5222.61  187.85
   7  -8   7 3231.59  181.66
   7  -8   8 1469.00  168.32
   7  -8   9 2099.24  197.99
   7  -8  10 1498.69  179.55
   7  -8  11 1207.04  254.35
   7  -7   0 3277.59  177.62
   7  -7   1 2277.50  153.90
   7  -7   2 2842.67  154.33
   7  -7   3 3816.07  141.52
   7  -7   4 3866.78  118.03
   7  -7   5 4794.71  195.22
   7  -7   6 2716.47  171.67
   7  -7   7 3106.64  211.87
   7  -7   8 2332.26  180.79
   7  -7   9 2153.12  204.49
   7  -7  10 1788.61  186.47
   7  -7  11 1522.10  216.71
   7  -6   0 4768.23  178.76
   7  -6   1 2142.78  127.99
   7  -6   2 3227.00  154.69
   7  -6   3 5966.95  183.32
   7  -6   4 2568.52  138.75
   7  -6   5 2482.52  202.18
   7  -6   6 3207.92  220.87
   7  -6   7 4482.46  234.45
   7  -6   8 2739.20  200.25
   7  -6   9 2616.70  186.40
   7  -6  10 2080.30  170.32
   7  -6  11 2125.58  252.03
   7  -5   0 3294.70  153.06
   7  -5   1 1539.50  117.28
   7  -5   2 4349.82  141.72
   7  -5   3 1042.06   82.52
   7  -5   4 1255.98  115.93
   7  -5   5 2522.84  163.17
   7  -5   6 2572.40  167.45
   7  -5   7 3205.32  177.39
   7  -5   8 2775.44  203.75
   7  -5   9 1589.68  161.37
   7  -5  10 2151.52  210.58
   7  -5  11 1231.08  169.54
   7  -4   0 2754.71  118.50
   7  -4   1 2904.42  127.23
   7  -4   2  422.93   66.00
   7  -4   3 1200.16  107.00
   7  -4   4 1421.63  124.67
   7  -4   5 1904.44  147.35
   7  -4   6 2663.69  182.84
   7  -4   7 3728.13  213.53
   7  -4   8 2348.27  270.68
   7  -4   9 1983.13  163.53
   7  -4  10 1081.30  144.02
   7  -3   0 3195.50  143.37
   7  -3   1  383.77   62.20
   7  -3   2 1029.55   96.92
   7  -3   3 1294.62  107.70
   7  -3   4  719.09  103.11
   7  -3   5 1590.27  140.97
   7  -3   6 2409.34  176.94
   7  -3   7 2846.51  204.32
   7  -3   8 1317.65  141.47
   7  -3   9  883.87  145.78
   7  -3  10  742.77  147.09
   7  -2   0 2217.16  130.09
   7  -2   1 1107.20   96.86
   7  -2   2 1126.75  103.00
   7  -2   3  776.81   94.29
   7  -2   4 1076.82  109.01
   7  -2   5 1535.25  142.16
   7  -2   6 2163.42  171.39
   7  -2   7 1322.24  163.22
   7  -2   8  637.74  157.39
   7  -2   9  478.10  132.14
   7  -1   0 2754.00  150.78
   7  -1   1 1000.80  104.53
   7  -1   2  822.31   96.81
   7  -1   3 1004.84  105.61
   7  -1   4  831.68  101.95
   7  -1   5 1461.89  142.24
   7  -1   6  347.67  109.59
   7  -1   7  892.32  156.90
   7  -1   8  721.11  147.29
   7  -1   9  705.96  175.34
   7   0   0 1956.38  140.14
   7   0   1  725.08   94.58
   7   0   2  456.69   87.66
   7   0   3  912.50  104.73
   7   0   4  760.21  108.61
   7   0   5  235.25   95.70
   7   0   6  396.36  127.42
   7   0   7  951.66  175.15
   7   0   8  452.68  204.36
   7   1   0 2407.77  161.24
   7   1   1  584.69   95.77
   7   1   2  858.75  106.90
   7   1   3 1148.00  124.09
   7   1   4  285.13  102.51
   7   1   5  303.54  113.33
   7   1   6  548.77  141.14
   7   1   7  440.74  188.77
   7   2   0  403.35   88.80
   7   2   1 1141.61  122.68
   7   2   2 1294.22  129.27
   7   2   3  929.85  141.91
   7   2   4  286.13  184.39
   7   2   5   63.37   95.57
   7   2   6 -111.61  111.61
   7   3   0  652.46  141.31
   7   3   1 1035.11  171.29
   7   3   2  728.81  132.02
   7   3   3  693.58  141.81
   7   3   4  141.84   56.05
   7   3   5  263.92  138.47
   7   3   6  -68.80  153.14
   7   4   0 1014.36  260.55
   7   4   1  710.34  144.14
   7   4   2  656.63  152.88
   7   4   3    1.99    0.55
   7   4   4  327.96  165.66
   7   4   5   47.52   78.14
   7   5   0  574.09  133.99
   7   5   1  673.85  129.86
   7   5   2   18.39    4.17
   7   5   3  286.89  113.86
   7   6   0  630.39  149.69
   7   6   1   40.68   13.96
   7   6   2  101.67   39.97
   7   7   0  150.57   47.46
   7   7   1  107.29   40.11
   8 -14   1  864.33  220.65
   8 -14   2  542.14   77.95
   8 -14   3  744.40   71.79
   8 -14   4  465.72   61.58
   8 -14   5  597.24   85.90
   8 -14   6  195.69   59.58
   8 -14   7    3.72   13.57
   8 -13   0 1212.00  181.40
   8 -13   1  350.28   49.90
   8 -13   2  621.20   98.98
   8 -13   3  706.89   67.65
   8 -13   4  834.77   94.36
   8 -13   5  336.65   52.42
   8 -13   6   48.46   24.21
   8 -13   7  -45.40   72.09
   8 -13   8   50.63  105.68
   8 -12   0 1175.82  115.72
   8 -12   1  721.14   79.04
   8 -12   2 1622.25  128.05
   8 -12   3 1612.44  132.82
   8 -12   4  595.25   77.58
   8 -12   5  442.32   81.14
   8 -12   6  332.32  124.88
   8 -12   7  235.26   88.31
   8 -12   8   85.44   99.83
   8 -12   9  -77.57   83.71
   8 -11   0 1995.81  179.19
   8 -11   1 2117.34  147.01
   8 -11   2 1674.63  143.07
   8 -11   3 1378.67  159.06
   8 -11   4  870.81  110.86
   8 -11   5  956.82  159.33
   8 -11   6  937.12  118.62
   8 -11   7  857.45  124.14
   8 -11   8   27.40   78.67
   8 -11   9  240.38  104.38
   8 -10   0 3972.88  197.13
   8 -10   1 1298.09   86.77
   8 -10   2 1760.28  148.19
   8 -10   3 2409.33  161.12
   8 -10   4 2145.67  194.91
   8 -10   5 1566.96  140.37
   8 -10   6 2191.05  200.99
   8 -10   7  843.25  126.78
   8 -10   8  474.03  104.35
   8 -10   9   29.17  193.70
   8 -10  10  -38.03  112.98
   8  -9   0 3713.71  177.77
   8  -9   1 2609.37  141.16
   8  -9   2 3590.13  205.74
   8  -9   3 5635.93  363.19
   8  -9   4 3383.08  268.30
   8  -9   5 3889.72  363.80
   8  -9   6 3401.20  305.58
   8  -9   7 2263.69  145.91
   8  -9   8  194.97   86.48
   8  -9   9   71.90  102.75
   8  -9  10  177.32  108.68
   8  -8   0 5002.46  221.33
   8  -8   1 3089.56  174.03
   8  -8   2 5527.61  249.14
   8  -8   3 4511.01  428.95
   8  -8   4 2755.24  502.32
   8  -8   5 5063.95  250.98
   8  -8   6 2008.74  149.21
   8  -8   7 1244.66  137.76
   8  -8   8  388.20  119.76
   8  -8   9  363.24  143.96
   8  -8  10  322.21  157.76
   8  -7   0 6315.37  393.47
   8  -7   1 4691.82  224.81
   8  -7   2 4086.03  200.39
   8  -7   3 2873.69  188.30
   8  -7   4 6100.23  506.54
   8  -7   5 2435.08  193.76
   8  -7   6 1434.67  162.29
   8  -7   7 1808.52  237.64
   8  -7   8  793.58  153.88
   8  -7   9  660.12  131.82
   8  -7  10  443.57  107.17
   8  -6   0 8859.31  372.13
   8  -6   1 4015.79  290.49
   8  -6   2 2405.82  223.76
   8  -6   3 4899.21  226.62
   8  -6   4 1747.51  399.14
   8  -6   5 1746.56  234.07
   8  -6   6 2618.44  239.00
   8  -6   7 1612.79  171.99
   8  -6   8 1065.55  139.97
   8  -6   9 1088.75  180.68
   8  -5   012576.40  358.43
   8  -5   1 4856.93  206.72
   8  -5   2 5270.02  221.27
   8  -5   3 2781.61  214.79
   8  -5   4 4290.33  299.48
   8  -5   5 5661.80  250.92
   8  -5   6 4013.33  267.68
   8  -5   7 2619.19  201.00
   8  -5   8 1262.55  160.02
   8  -5   9 1259.55  174.04
   8  -4   011804.60  309.44
   8  -4   1 3197.20  264.43
   8  -4   2 3960.42  196.96
   8  -4   3 4945.17  219.26
   8  -4   4 5428.96  243.90
   8  -4   5 4197.96  275.69
   8  -4   6 3805.15  378.07
   8  -4   7 2012.62  179.12
   8  -4   8 1912.44  244.64
   8  -4   9 1049.88  142.25
   8  -3   0 4672.38  181.58
   8  -3   1 4534.19  185.18
   8  -3   2 4909.15  264.55
   8  -3   3 6136.67  259.05
   8  -3   4 5572.40  244.62
   8  -3   5 4732.23  231.21
   8  -3   6 2322.38  364.20
   8  -3   7 2551.46  197.81
   8  -3   8 1219.22  132.74
   8  -2   0 7892.96  260.14
   8  -2   1 5058.45  226.19
   8  -2   2 5110.28  201.77
   8  -2   3 7006.42  247.16
   8  -2   4 5256.34  275.67
   8  -2   5 2078.31  153.89
   8  -2   6 2063.62  185.34
   8  -2   7 1711.21  142.46
   8  -2   8 1498.72  185.56
   8  -1   0 8635.87  287.52
   8  -1   1 6035.15  221.05
   8  -1   2 6897.22  244.87
   8  -1   3 6386.89  258.17
   8  -1   4 3408.14  231.89
   8  -1   5 1793.09  150.44
   8  -1   6 1509.32  133.23
   8  -1   7 1677.73  185.76
   8   0   0 8334.48  289.74
   8   0   1 7014.11  247.84
   8   0   2 6230.24  253.95
   8   0   3 4481.55  252.06
   8   0   4 1490.61  131.18
   8   0   5 2112.65  164.00
   8   0   6 1850.98  190.12
   8   1   0 8498.38  311.09
   8   1   1 6509.38  269.04
   8   1   2 5701.14  274.27
   8   1   3 2151.59  198.26
   8   1   4 2514.91  274.89
   8   1   5 2398.06  268.51
   8   2   0 9628.94  504.62
   8   2   1 7084.05  329.40
   8   2   2 4513.10  308.44
   8   2   3 3844.57  280.55
   8   2   4 3391.50  240.14
   8   3   0 5566.86  332.70
   8   3   1 4583.29  299.74
   8   3   2 3884.25  266.39
   8   3   3 2792.59  294.30
   8   4   0 4624.51  272.36
   8   4   1 3294.64  270.13
   8   4   2 2306.47  248.13
   8   5   0 3430.45  361.83
   8   5   1 2367.89  317.13
   8   6   0 3199.94  345.52
   9 -13   1 2517.56  203.94
   9 -13   2 2821.39  209.46
   9 -13   3 1893.02  191.51
   9 -13   4 2535.02  214.56
   9 -12   0 2028.99  183.08
   9 -12   1 3831.02  254.40
   9 -12   2 2426.71  216.96
   9 -12   3 3190.55  375.42
   9 -12   4 2492.24  210.46
   9 -12   5 1845.11  185.12
   9 -12   6 1558.23  238.66
   9 -11   0 2659.61  225.34
   9 -11   1 4115.12  250.89
   9 -11   2 4304.50  338.97
   9 -11   3 2960.46  257.71
   9 -11   4 2190.73  195.15
   9 -11   5 1708.90  185.96
   9 -11   6 2530.69  291.05
   9 -11   7 2334.27  218.55
   9 -10   0 3294.45  250.13
   9 -10   1 6151.95  282.16
   9 -10   2 3613.50  231.27
   9 -10   3 2582.66  207.23
   9 -10   4 1985.14  192.73
   9 -10   5 1824.94  199.29
   9 -10   6 2471.18  213.26
   9 -10   7 2030.73  213.47
   9  -9   0 3183.49  225.05
   9  -9   1 3621.00  227.79
   9  -9   2 2489.75  197.54
   9  -9   3 1437.21  170.20
   9  -9   4  971.49  148.72
   9  -9   5 2427.23  182.63
   9  -9   6 1718.42  201.12
   9  -9   7 2376.05  150.86
   9  -9   8 2254.05  187.99
   9  -8   0 2239.48  210.78
   9  -8   1 2954.28  292.02
   9  -8   2 2052.52  163.48
   9  -8   3 1466.08  152.37
   9  -8   4 2037.25  199.65
   9  -8   5 1927.35  163.13
   9  -8   6 2628.18  135.91
   9  -8   7 2037.16  148.94
   9  -8   8 1341.24  197.43
   9  -7   0 1257.59  134.94
   9  -7   1 2395.34  186.97
   9  -7   2 1426.03  179.17
   9  -7   3 1619.51  158.68
   9  -7   4 2369.02  169.48
   9  -7   5 2639.91  154.36
   9  -7   6 2093.08  161.19
   9  -7   7 1360.45  144.10
   9  -6   0  887.90  127.66
   9  -6   1 1606.14  149.56
   9  -6   2 1247.34  151.59
   9  -6   3 3107.31  283.70
   9  -6   4 2256.62  147.77
   9  -6   5 1984.21  150.63
   9  -6   6 1363.39  146.32
   9  -6   7  622.93  143.40
   9  -5   0 1140.55  122.00
   9  -5   1 1254.26  129.43
   9  -5   2 3941.78  196.17
   9  -5   3 3175.00  187.13
   9  -5   4 2088.94  156.72
   9  -5   5 1401.42  140.05
   9  -5   6 1218.40  183.87
   9  -5   7  864.63  155.86
   9  -4   0  137.43   69.36
   9  -4   1 2058.56  137.08
   9  -4   2 1461.75  150.37
   9  -4   3 1477.67  140.15
   9  -4   4 1126.66  142.33
   9  -4   5  822.74  131.53
   9  -4   6  611.94  136.12
   9  -3   0  160.08   80.81
   9  -3   1  537.24  112.08
   9  -3   2  764.56  127.12
   9  -3   3  846.80  115.93
   9  -3   4  643.10  114.33
   9  -3   5  387.70  111.09
   9  -3   6  283.53  151.49
   9  -2   0   56.41   93.11
   9  -2   1  344.76  111.13
   9  -2   2  629.36  110.57
   9  -2   3  706.72  118.01
   9  -2   4  364.73  110.13
   9  -2   5  253.58  141.03
   9  -1   0  -86.22   86.22
   9  -1   1  287.55   98.60
   9  -1   2  422.23  101.43
   9  -1   3  552.18  111.70
   9  -1   4  109.47  101.13
   9  -1   5  431.30  176.04
   9   0   0    7.26   10.25
   9   0   1  287.46   74.94
   9   0   2  362.74  123.06
   9   0   3  427.63  141.64
   9   0   4  178.52  154.82
   9   1   0   60.94   19.03
   9   1   1  293.83   98.15
   9   1   2  393.46  123.30
   9   1   3  282.05  124.90
   9   2   0   62.00   47.58
   9   2   1  110.10  126.16
   9   2   2  -10.19   95.16
   9   3   0   -1.07    5.60
   9   3   1   -1.06   19.73
  10 -10   0 1323.62  198.04
  10 -10   1 1199.17  185.58
  10 -10   2  917.51  189.97
  10 -10   3 1231.40  204.41
  10 -10   4  858.05  195.44
  10  -9   0 1593.15  194.41
  10  -9   1 1711.24  209.54
  10  -9   2 2591.86  259.01
  10  -9   3 2177.49  243.63
  10  -9   4 1208.92  232.50
  10  -8   0 1253.63  122.80
  10  -8   1 1936.39  227.04
  10  -8   2 2243.53  196.89
  10  -8   3 2246.87  290.35
  10  -8   4 1044.93  171.11
  10  -7   0 1780.52  180.71
  10  -7   1 2707.01  266.78
  10  -7   2 2927.44  285.56
  10  -7   3 2231.13  246.98
  10  -7   4  724.92  116.90
  10  -6   0 2060.08  203.11
  10  -6   1 3671.92  324.61
  10  -6   2 2965.14  225.49
  10  -6   3 2018.30  197.71
  10  -6   4  950.39  106.88
  10  -5   0 2847.37  197.29
  10  -5   1 3314.07  209.44
  10  -5   2 1890.90  200.36
  10  -5   3 1321.54  155.12
  10  -5   4 1054.78  147.31
  10  -4   0 4397.71  251.15
  10  -4   1 4039.44  290.56
  10  -4   2 2316.36  240.62
  10  -4   3 2076.03  188.21
  10  -4   4 1306.80  159.10
  10  -3   0 2966.44  202.68
  10  -3   1 2724.37  243.14
  10  -3   2 2079.03  167.72
  10  -3   3 2721.99  230.21
  10  -2   0 2466.72  173.97
  10  -2   1 1935.40  165.19
  10  -2   2 2611.19  252.91
  10  -1   0 2266.89  199.67
  10  -1   1 2892.69  261.39
  10   0   0 3025.66  304.64
   0   0   0    0.00    0.00
;
_shelx_hkl_checksum              37022
_shelx_fab_file
;
-10 -3 5 -0.6203 4.1809
-10 -3 6 0.8986 3.4241
-10 -3 7 -1.0996 3.7443
-10 -2 2 2.2836 4.1677
-10 -2 3 0.7143 3.0569
-10 -2 4 1.3429 0.0338
-10 -2 5 1.9160 -2.0780
-10 -2 6 -1.1795 -1.6398
-10 -2 7 1.3191 2.3598
-10 -2 8 -1.3895 4.1683
-10 -1 1 0.8357 2.2533
-10 -1 2 -2.9047 -1.5312
-10 -1 3 -0.9937 -1.2574
-10 -1 4 -6.0330 0.4031
-10 -1 5 -0.6970 -0.7180
-10 -1 6 3.7749 -0.2120
-10 -1 7 0.4463 -1.3094
-10 -1 8 -1.2488 1.6185
-10 -1 9 -0.0381 3.2311
-10 0 1 4.1633 1.2042
-10 0 2 0.8088 -0.3720
-10 0 3 1.1358 -0.0392
-10 0 4 4.0755 0.8197
-10 0 5 -4.3715 -0.5374
-10 0 6 -0.5887 -0.4551
-10 0 7 1.7918 -0.1906
-10 0 8 -1.8494 -2.0912
-10 0 9 0.9902 2.7383
-10 1 1 2.2027 0.8565
-10 1 2 -1.6135 0.2405
-10 1 3 -1.0191 -0.3968
-10 1 4 1.3190 -0.0181
-10 1 5 0.5716 0.1843
-10 1 6 -1.9208 0.4080
-10 1 7 0.9082 0.1882
-10 1 8 0.0615 -1.7063
-10 1 9 -0.9027 3.0841
-10 2 1 1.5183 -0.1832
-10 2 2 -0.4384 0.3031
-10 2 3 1.7101 0.2180
-10 2 4 -0.2316 0.2393
-10 2 5 1.1060 0.3831
-10 2 6 -0.1658 0.4567
-10 2 7 0.2305 -0.3735
-10 2 8 3.7580 -1.8722
-10 2 9 0.6866 3.8018
-10 3 1 -1.2848 -0.8159
-10 3 2 -0.5634 0.8973
-10 3 3 0.9711 -0.6424
-10 3 4 -2.6031 -0.1175
-10 3 5 0.1886 -0.2110
-10 3 6 -0.0876 0.6752
-10 3 7 0.1338 0.3195
-10 3 8 -1.1183 0.5398
-10 4 1 -1.4372 -0.7703
-10 4 2 0.7544 0.8229
-10 4 3 -0.3365 -0.2384
-10 4 4 1.8881 -0.6131
-10 4 5 0.0040 -0.3797
-10 4 6 -1.6170 0.1500
-10 4 7 -0.3963 -1.6051
-10 4 8 -2.5778 4.2418
-10 5 1 -1.2997 -0.9021
-10 5 2 0.7130 0.7434
-10 5 3 -1.1878 -0.3914
-10 5 4 -0.5030 0.1922
-10 5 5 0.4525 0.2673
-10 5 6 -1.1652 0.7523
-10 5 7 1.5370 0.8579
-10 6 1 2.0246 -0.9368
-10 6 2 0.5446 1.0401
-10 6 3 -0.1924 0.1146
-10 6 4 0.3586 -0.0170
-10 6 5 -0.7538 -1.0775
-10 6 6 4.3458 -0.8366
-10 6 7 -1.3314 4.2053
-10 7 1 -0.4752 -1.1651
-10 7 2 -0.4138 1.0421
-10 7 3 0.1712 0.2863
-10 7 4 1.4790 0.0911
-10 7 5 -0.7702 -1.3784
-10 7 6 -1.8177 1.2248
-10 8 1 -0.0682 -1.4243
-10 8 2 -1.1370 0.5133
-10 8 3 0.1819 -1.0709
-10 8 4 -0.0574 0.1437
-10 8 5 0.1472 2.3843
-10 9 1 -1.3809 -0.9341
-10 9 2 3.3685 0.1645
-10 9 3 -2.4138 1.4440
-10 10 1 0.9229 -1.9855
-10 10 2 -2.6009 4.2800
-9 -6 5 2.4516 -1.4169
-9 -6 6 3.2704 -0.4691
-9 -6 7 -1.2405 0.0120
-9 -6 8 -1.3206 -0.3536
-9 -5 3 1.4894 -1.3924
-9 -5 4 0.3698 0.1578
-9 -5 5 -1.6972 0.5118
-9 -5 6 1.0454 1.1689
-9 -5 7 1.6229 1.2682
-9 -5 8 -1.2231 -0.2149
-9 -5 9 -0.1815 -2.0917
-9 -5 10 -2.4943 -1.4801
-9 -4 1 3.5653 1.8445
-9 -4 2 5.3720 -1.3812
-9 -4 3 -3.6570 1.4815
-9 -4 4 -1.0690 -0.1914
-9 -4 5 -1.8807 -0.6769
-9 -4 6 0.2963 -1.6637
-9 -4 7 -1.3738 -1.2967
-9 -4 8 2.0733 0.1792
-9 -4 9 0.0733 1.5636
-9 -4 10 -2.5916 -0.9222
-9 -4 11 1.1996 -1.6330
-9 -3 1 -9.2649 1.6172
-9 -3 2 7.1020 -1.9005
-9 -3 3 8.9646 0.7332
-9 -3 4 -1.8969 -0.1174
-9 -3 5 -0.7435 0.0317
-9 -3 6 -3.1211 -0.1652
-9 -3 7 3.1231 0.5284
-9 -3 8 0.1484 0.4225
-9 -3 9 -1.3099 -0.5661
-9 -3 10 4.6078 2.0401
-9 -3 11 -5.0825 -2.9527
-9 -2 1 -0.7143 1.3301
-9 -2 2 -9.2078 -0.3658
-9 -2 3 -0.0897 0.0313
-9 -2 4 -1.8063 1.1127
-9 -2 5 8.6533 0.3516
-9 -2 6 -4.0921 0.7309
-9 -2 7 -0.9293 -0.3694
-9 -2 8 0.3394 -0.3345
-9 -2 9 -2.1312 -0.5370
-9 -2 10 4.1830 1.4088
-9 -2 11 -3.5608 -1.4480
-9 -2 12 0.8760 -2.7342
-9 -1 1 -5.3560 2.9469
-9 -1 2 3.0291 -2.0883
-9 -1 3 0.4740 0.5037
-9 -1 4 -1.7890 -0.4464
-9 -1 5 0.4759 0.1885
-9 -1 6 3.0016 -0.7923
-9 -1 7 -0.9463 1.3998
-9 -1 8 3.0758 -1.1133
-9 -1 9 -1.2708 -0.3225
-9 -1 10 1.8932 1.5688
-9 -1 11 -2.4078 0.6839
-9 -1 12 6.4369 -2.4283
-9 0 1 0.8491 1.2410
-9 0 2 -0.9315 -1.6423
-9 0 3 0.7880 0.4002
-9 0 4 -3.1017 -0.2362
-9 0 5 -1.9838 -0.1204
-9 0 6 -1.3413 -0.3075
-9 0 7 -3.1877 0.3685
-9 0 8 -1.6721 -0.2566
-9 0 9 1.3052 -0.3966
-9 0 10 -5.6050 0.6673
-9 0 11 -0.7487 -1.0169
-9 1 1 0.4249 0.8598
-9 1 2 0.4224 -1.0530
-9 1 3 0.0590 0.8117
-9 1 4 1.3303 0.0010
-9 1 5 0.4553 -0.2029
-9 1 6 0.2519 -0.6711
-9 1 7 3.4498 0.7896
-9 1 8 0.0601 0.2394
-9 1 9 1.3773 -0.0587
-9 1 10 -1.4208 0.0806
-9 1 11 5.2588 -0.8992
-9 2 1 1.6359 1.1920
-9 2 2 -2.7266 -0.9180
-9 2 3 1.8357 0.6669
-9 2 4 2.0584 -0.0279
-9 2 5 4.8585 0.6649
-9 2 6 -3.3873 -0.6406
-9 2 7 0.9788 0.0962
-9 2 8 -2.9529 0.3607
-9 2 9 8.2393 0.3375
-9 2 10 8.1105 0.3582
-9 2 11 -1.7515 0.2050
-9 3 1 -2.4765 1.1915
-9 3 2 -0.3805 -1.7351
-9 3 3 0.4610 0.8070
-9 3 4 -3.1462 0.0236
-9 3 5 -3.7134 0.6541
-9 3 6 1.0298 -1.0099
-9 3 7 5.4046 -0.3837
-9 3 8 -5.8768 0.3392
-9 3 9 -15.3099 -1.4297
-9 3 10 9.8605 0.6872
-9 3 11 2.1383 -0.0793
-9 4 1 3.5970 1.2570
-9 4 2 0.7391 -1.3316
-9 4 3 -1.5319 0.2519
-9 4 4 1.2789 -0.2502
-9 4 5 0.7246 0.6463
-9 4 6 -2.9712 -0.7208
-9 4 7 -1.0547 0.9489
-9 4 8 6.1590 -0.4543
-9 4 9 -5.7737 -0.0524
-9 4 10 -9.5354 1.7602
-9 5 1 -0.0347 1.8068
-9 5 2 -1.8600 -1.0189
-9 5 3 0.5016 0.3587
-9 5 4 -1.7034 -0.3079
-9 5 5 2.4030 -0.0645
-9 5 6 -0.1141 -0.4087
-9 5 7 0.4185 0.8012
-9 5 8 2.2478 -2.1581
-9 5 9 5.4134 1.1433
-9 6 1 -0.2568 1.8436
-9 6 2 0.5448 -1.5009
-9 6 3 -0.2703 0.3272
-9 6 4 3.2573 0.2558
-9 6 5 1.2164 0.8090
-9 6 6 -1.3072 0.9713
-9 6 7 1.1402 -0.7397
-9 6 8 2.6542 0.2430
-9 6 9 -2.8959 1.8161
-9 7 1 0.7367 1.7250
-9 7 2 0.8838 -1.4481
-9 7 3 2.2571 0.4747
-9 7 4 -8.3502 0.6065
-9 7 5 0.4505 -0.4675
-9 7 6 -0.9762 -0.4609
-9 7 7 -0.1796 0.2027
-9 7 8 -3.7985 0.1592
-9 8 1 0.8277 2.4065
-9 8 2 -2.0086 -1.7482
-9 8 3 0.0619 -0.0969
-9 8 4 3.5977 -0.6462
-9 8 5 1.2818 1.1382
-9 8 6 -1.3061 -0.6069
-9 8 7 0.1524 0.2565
-9 9 1 -2.8792 2.6773
-9 9 2 1.3537 -2.9657
-9 9 3 2.3442 -0.7728
-9 9 4 0.7995 1.2943
-9 9 5 -5.3427 -1.9081
-9 9 6 2.5294 -0.2176
-9 10 1 4.8416 3.1106
-9 10 2 -3.7563 -0.2613
-9 10 3 -1.8420 0.1591
-9 10 4 -2.9986 -0.5172
-9 10 5 7.7852 2.7402
-9 11 1 -2.2884 5.5449
-9 11 2 0.5157 -1.1832
-9 11 3 8.2884 3.5443
-9 12 1 2.1712 3.2033
-8 -8 5 -5.1847 -3.0352
-8 -8 6 -0.4413 -2.5727
-8 -8 7 -0.1526 -1.8220
-8 -8 8 2.2388 -1.7743
-8 -8 9 -0.7375 -2.4593
-8 -8 10 -1.8891 -3.1150
-8 -7 2 -1.9713 -2.3769
-8 -7 3 -1.6018 -3.5069
-8 -7 4 4.3328 -1.1579
-8 -7 5 2.1249 1.8619
-8 -7 6 -3.0737 1.4309
-8 -7 7 -3.3181 0.7449
-8 -7 8 -0.2491 1.6757
-8 -7 9 0.2264 0.2635
-8 -7 10 2.6614 -2.7304
-8 -7 11 -2.5366 -2.8931
-8 -7 12 -1.8834 -3.3428
-8 -6 1 0.1983 -3.8748
-8 -6 2 -2.9357 2.5071
-8 -6 3 -1.9052 0.5139
-8 -6 4 0.8409 -0.1300
-8 -6 5 2.0486 0.1593
-8 -6 6 -0.7844 -0.4968
-8 -6 7 1.7591 -0.5182
-8 -6 8 -0.6259 1.4597
-8 -6 9 0.8566 0.6879
-8 -6 10 -0.2375 1.9958
-8 -6 11 1.9800 0.5732
-8 -6 12 1.7712 -2.2023
-8 -6 13 -2.7938 -3.5330
-8 -5 1 -3.0353 -1.5306
-8 -5 2 -1.8542 1.4504
-8 -5 3 -1.1365 1.0066
-8 -5 4 -2.2903 -0.0923
-8 -5 5 1.4998 -0.0666
-8 -5 6 1.6288 0.0376
-8 -5 7 1.1907 -1.1112
-8 -5 8 -1.4823 1.1974
-8 -5 9 -0.9204 0.0603
-8 -5 10 -1.4391 1.1705
-8 -5 11 0.2359 0.2610
-8 -5 12 -3.2110 0.0176
-8 -5 13 0.2036 -1.9782
-8 -4 1 4.7557 -1.7279
-8 -4 2 1.9807 0.3794
-8 -4 3 -0.9221 -0.1792
-8 -4 4 -0.5583 -0.6940
-8 -4 5 -1.4254 0.1402
-8 -4 6 -0.5097 -0.0695
-8 -4 7 0.5419 -0.6690
-8 -4 8 1.4641 -0.3878
-8 -4 9 -1.2459 -1.3950
-8 -4 10 -0.0554 0.9017
-8 -4 11 2.4333 1.0213
-8 -4 12 -0.8924 1.6397
-8 -4 13 -0.9623 -1.6987
-8 -3 1 2.6318 -2.1017
-8 -3 2 0.2044 0.5488
-8 -3 3 2.1246 -0.5306
-8 -3 4 3.0895 -0.1172
-8 -3 5 -0.7024 0.6317
-8 -3 6 -3.1143 0.4011
-8 -3 7 1.2926 -0.3713
-8 -3 8 -0.9048 -0.3554
-8 -3 9 3.7305 -0.5322
-8 -3 10 -2.5910 0.1745
-8 -3 11 -0.7729 0.6378
-8 -3 12 -0.6142 1.5915
-8 -3 13 2.1225 -1.5295
-8 -2 1 -2.3112 -0.4701
-8 -2 2 -0.5956 1.2979
-8 -2 3 -4.5268 -0.1682
-8 -2 4 3.8047 0.2822
-8 -2 5 -4.7930 -0.1503
-8 -2 6 2.8137 0.3379
-8 -2 7 -0.8425 0.1790
-8 -2 8 -0.8576 0.1962
-8 -2 9 -0.0219 -0.6037
-8 -2 10 3.2426 -1.2503
-8 -2 11 -0.0337 -0.1337
-8 -2 12 2.5688 0.8912
-8 -2 13 -5.1162 -0.8209
-8 -1 1 1.8017 -0.4982
-8 -1 2 3.3603 0.8588
-8 -1 3 -3.1844 -0.4978
-8 -1 4 3.6227 -0.3644
-8 -1 5 1.1670 -0.2911
-8 -1 6 6.7590 0.6630
-8 -1 7 -5.5376 -0.1494
-8 -1 8 6.2569 0.8616
-8 -1 9 0.7594 -0.0974
-8 -1 10 -2.0930 -0.9683
-8 -1 11 3.0737 -0.1973
-8 -1 12 3.1684 0.8168
-8 -1 13 -1.6321 -2.0601
-8 0 1 1.2099 -0.8964
-8 0 2 -1.0172 0.5072
-8 0 3 -5.9576 -0.2031
-8 0 4 1.2689 0.1813
-8 0 5 -4.5981 -0.1858
-8 0 6 -3.0808 0.0632
-8 0 7 -8.4807 -0.6336
-8 0 8 -2.9822 0.9557
-8 0 9 -3.1649 0.1834
-8 0 10 -5.8835 -0.6285
-8 0 11 -0.7103 0.3022
-8 0 12 -1.0204 1.3929
-8 0 13 0.2817 -2.5431
-8 1 1 -3.4498 -0.6468
-8 1 2 3.8046 0.2283
-8 1 3 1.2538 0.2656
-8 1 4 2.5791 -0.3292
-8 1 5 1.2957 0.2488
-8 1 6 7.8681 0.0256
-8 1 7 1.5140 -0.8160
-8 1 8 6.8407 1.1425
-8 1 9 -1.6618 -0.2413
-8 1 10 0.2868 -0.7784
-8 1 11 -1.2754 1.4145
-8 1 12 0.7504 1.1228
-8 1 13 1.9093 -4.6113
-8 2 1 6.1168 -0.6596
-8 2 2 2.2408 0.1596
-8 2 3 -2.7497 -0.0874
-8 2 4 -0.9834 -0.0112
-8 2 5 -4.0725 0.1842
-8 2 6 5.9515 -0.0485
-8 2 7 -0.8712 -0.2982
-8 2 8 1.8197 1.2326
-8 2 9 4.7874 -1.0491
-8 2 10 3.2780 -0.5586
-8 2 11 -2.0787 0.9589
-8 2 12 1.8369 -0.6091
-8 3 1 -5.6776 -0.2980
-8 3 2 -0.3953 0.7688
-8 3 3 1.3596 0.0487
-8 3 4 -0.5481 -0.3783
-8 3 5 -5.5833 -0.2528
-8 3 6 1.7821 -0.2421
-8 3 7 -7.8049 -0.1459
-8 3 8 1.5691 0.6977
-8 3 9 0.6376 -1.1003
-8 3 10 -2.0598 0.4624
-8 3 11 0.7696 1.9215
-8 3 12 0.6914 -4.8269
-8 4 1 -1.1307 -0.4297
-8 4 2 -0.6558 0.3486
-8 4 3 6.5620 0.0312
-8 4 4 0.3362 -0.0761
-8 4 5 -0.5013 0.1172
-8 4 6 -1.1417 0.1888
-8 4 7 -3.2662 -0.0010
-8 4 8 -3.3242 0.2719
-8 4 9 1.2567 -0.9647
-8 4 10 -3.0471 -0.3092
-8 4 11 -0.4564 -0.5890
-8 5 1 0.9423 -0.5147
-8 5 2 -1.9008 0.5184
-8 5 3 -5.3837 -0.0754
-8 5 4 2.0811 -0.1240
-8 5 5 1.7142 -0.4150
-8 5 6 3.6557 0.0772
-8 5 7 0.3875 -0.4428
-8 5 8 1.9711 0.5157
-8 5 9 -0.6104 0.0532
-8 5 10 3.1494 1.4018
-8 5 11 -1.4151 -4.5252
-8 6 1 0.3522 -0.3221
-8 6 2 2.1544 0.4156
-8 6 3 -2.1351 0.3098
-8 6 4 4.7056 -0.0411
-8 6 5 -0.6804 0.4987
-8 6 6 2.5633 0.4143
-8 6 7 -1.0090 -1.0033
-8 6 8 -0.5281 1.8493
-8 6 9 1.0648 -0.2044
-8 6 10 -2.0806 -0.7052
-8 7 1 -0.0554 -0.8683
-8 7 2 -2.1154 0.1404
-8 7 3 -0.6650 0.0829
-8 7 4 -2.8031 0.3702
-8 7 5 -1.4579 0.3888
-8 7 6 -2.0390 -1.1344
-8 7 7 2.4231 0.5872
-8 7 8 -1.3715 0.4906
-8 7 9 1.0357 -0.8078
-8 8 1 -1.0686 -0.8718
-8 8 2 6.0025 0.0228
-8 8 3 -3.3247 0.2652
-8 8 4 0.7767 -0.2658
-8 8 5 0.3427 -0.7530
-8 8 6 2.1354 -0.2904
-8 8 7 -1.9993 0.2394
-8 8 8 1.1895 -0.5118
-8 9 1 3.7382 -1.0914
-8 9 2 -2.5892 0.0297
-8 9 3 0.2802 -0.5310
-8 9 4 0.3557 -0.3024
-8 9 5 -1.4386 -0.4127
-8 9 6 -1.5268 0.4593
-8 9 7 0.3337 -1.4390
-8 10 1 -3.6450 -0.0721
-8 10 2 1.5193 1.1055
-8 10 3 3.6781 -0.0233
-8 10 4 -1.6082 1.2471
-8 10 5 -0.1922 1.7770
-8 10 6 0.8980 -0.8803
-8 11 1 0.8892 1.6013
-8 11 2 -0.3874 -0.6619
-8 11 3 -2.0323 0.2078
-8 11 4 2.6052 1.1544
-8 11 5 0.5514 -0.7494
-8 12 1 -1.5381 0.1245
-8 12 2 0.4280 0.0858
-8 12 3 -0.1205 -1.8416
-8 12 4 0.5813 -3.3831
-8 13 1 1.3059 1.1570
-8 13 2 -0.6175 -5.6658
-7 -10 6 -0.2541 2.2170
-7 -10 7 1.8854 2.2430
-7 -10 8 0.3429 1.5569
-7 -10 9 -0.5907 2.7320
-7 -10 10 0.7908 3.5308
-7 -9 3 0.3751 2.0842
-7 -9 4 0.4749 2.9081
-7 -9 5 1.1237 0.6328
-7 -9 6 1.1658 -0.1189
-7 -9 7 -0.6125 -0.3885
-7 -9 8 1.2593 -0.7728
-7 -9 9 2.7656 -0.1946
-7 -9 10 1.6553 2.7474
-7 -9 11 -0.5320 4.0073
-7 -9 12 -0.8482 3.4459
-7 -8 1 -2.6185 2.5777
-7 -8 2 1.1225 -0.4524
-7 -8 3 -1.3022 -0.4079
-7 -8 4 -0.0270 -0.9657
-7 -8 5 0.7873 -0.3375
-7 -8 6 -1.1778 -1.2596
-7 -8 7 1.5454 -1.4368
-7 -8 8 -2.8345 -1.8413
-7 -8 9 -1.5824 -0.7325
-7 -8 10 0.7521 -1.2833
-7 -8 11 1.0156 -1.2112
-7 -8 12 -2.2279 2.6877
-7 -8 13 -1.4977 4.7224
-7 -7 1 2.2095 -2.1348
-7 -7 2 3.8099 -0.5185
-7 -7 3 -0.2992 0.1823
-7 -7 4 -0.6911 -0.6931
-7 -7 5 -0.6555 0.4119
-7 -7 6 -1.0917 0.7453
-7 -7 7 1.1601 0.5040
-7 -7 8 -1.2347 -0.1771
-7 -7 9 0.9530 -0.6058
-7 -7 10 -1.7990 -1.0710
-7 -7 11 1.9163 -0.7148
-7 -7 12 2.6343 -1.4895
-7 -7 13 -0.8602 2.1295
-7 -7 14 -1.8205 2.5194
-7 -6 1 -2.7191 -0.6060
-7 -6 2 -2.3554 0.8157
-7 -6 3 -1.6578 -0.5353
-7 -6 4 -1.9148 0.1992
-7 -6 5 1.9952 0.7470
-7 -6 6 1.8842 0.4776
-7 -6 7 -1.0411 0.5534
-7 -6 8 -3.7419 -0.0534
-7 -6 9 4.0209 0.6026
-7 -6 10 -0.5182 -0.3573
-7 -6 11 0.8281 -0.8872
-7 -6 12 -1.6442 -0.0388
-7 -6 13 2.5184 -1.1287
-7 -6 14 -2.9429 2.0182
-7 -5 1 0.0002 -0.3786
-7 -5 2 1.1532 0.3325
-7 -5 3 4.1250 -0.4623
-7 -5 4 -3.5866 0.5595
-7 -5 5 -1.1516 -0.3546
-7 -5 6 -0.4366 0.5320
-7 -5 7 1.7326 0.5485
-7 -5 8 2.9763 0.1337
-7 -5 9 -2.6018 0.2883
-7 -5 10 -2.6463 0.3971
-7 -5 11 -0.3572 0.1714
-7 -5 12 -1.5679 -1.0766
-7 -5 13 2.0445 -0.0950
-7 -5 14 -2.1071 0.5934
-7 -5 15 -1.2578 2.5219
-7 -4 1 1.3262 -0.3370
-7 -4 2 -1.6845 0.4158
-7 -4 3 7.1713 -0.6861
-7 -4 4 -0.3950 -0.0549
-7 -4 5 1.3747 -0.5830
-7 -4 6 -0.9274 0.0411
-7 -4 7 -0.1914 -0.2320
-7 -4 8 -1.3636 -0.0810
-7 -4 9 -0.1847 0.9958
-7 -4 10 4.1436 0.0910
-7 -4 11 0.3153 0.0481
-7 -4 12 -2.0752 -0.3430
-7 -4 13 0.2344 1.8017
-7 -4 14 -1.0635 -2.8017
-7 -4 15 1.3531 2.0077
-7 -3 1 6.1419 -0.1424
-7 -3 2 -5.8318 1.0011
-7 -3 3 -0.5304 -0.9029
-7 -3 4 -0.8011 -0.1288
-7 -3 5 0.3106 -0.6308
-7 -3 6 2.6294 -0.2532
-7 -3 7 -4.1922 0.0057
-7 -3 8 1.1442 -0.3615
-7 -3 9 -1.8297 0.6737
-7 -3 10 0.6892 -0.1268
-7 -3 11 -1.3891 -0.1361
-7 -3 12 0.5546 -0.4373
-7 -3 13 1.7576 2.0069
-7 -3 14 0.4674 -2.6174
-7 -3 15 1.4000 2.0801
-7 -2 1 -3.0904 -0.0416
-7 -2 2 -0.8656 1.0826
-7 -2 3 -5.2735 -0.9341
-7 -2 4 -0.9309 0.6931
-7 -2 5 -2.9133 0.0761
-7 -2 6 11.8218 0.4857
-7 -2 7 -4.9057 -1.0210
-7 -2 8 -2.7007 -0.5106
-7 -2 9 2.6215 0.2474
-7 -2 10 4.3673 0.1594
-7 -2 11 -0.6356 -0.9729
-7 -2 12 2.3276 -0.0010
-7 -2 13 -1.9111 2.2295
-7 -2 14 1.0043 -1.7467
-7 -1 1 -0.6011 -0.2358
-7 -1 2 8.5089 0.7600
-7 -1 3 6.8688 -0.4549
-7 -1 4 2.3252 0.7013
-7 -1 5 -4.8573 0.1559
-7 -1 6 -9.5869 0.2186
-7 -1 7 26.3145 -0.3020
-7 -1 8 -8.2603 -0.7640
-7 -1 9 -1.1887 0.7681
-7 -1 10 -5.1970 0.1888
-7 -1 11 2.6132 -1.0843
-7 -1 12 -1.9249 -0.2112
-7 -1 13 1.3972 0.5836
-7 -1 14 -0.2564 1.4936
-7 0 1 -0.6404 -0.6062
-7 0 2 -2.5330 0.6881
-7 0 3 -4.6674 -0.7696
-7 0 4 -10.4773 0.1160
-7 0 5 15.9467 0.0226
-7 0 6 -32.1973 0.8527
-7 0 7 2.4837 0.0090
-7 0 8 -2.0348 -0.2492
-7 0 9 2.3648 0.9727
-7 0 10 -0.1991 -0.0083
-7 0 11 -0.2731 -0.5410
-7 0 12 -3.8705 -0.4413
-7 0 13 -1.4338 0.1945
-7 0 14 -1.3299 2.0022
-7 1 1 -0.4985 -0.7579
-7 1 2 -8.3318 0.6455
-7 1 3 13.2738 -0.6604
-7 1 4 1.1750 0.2587
-7 1 5 12.3296 -0.5750
-7 1 6 6.3116 0.5283
-7 1 7 3.6291 0.2569
-7 1 8 -6.8856 -0.5227
-7 1 9 1.2408 0.4714
-7 1 10 1.5588 0.0873
-7 1 11 2.4867 0.0699
-7 1 12 0.7220 -1.0340
-7 1 13 1.7425 -1.0182
-7 1 14 1.6525 0.4660
-7 2 1 1.1649 -0.9177
-7 2 2 -0.0159 0.9642
-7 2 3 -5.7659 -0.4377
-7 2 4 -0.5837 0.0034
-7 2 5 -7.1393 -1.0382
-7 2 6 2.5188 0.7799
-7 2 7 5.2709 -0.3411
-7 2 8 1.3711 -0.7189
-7 2 9 -0.8759 0.3922
-7 2 10 -1.3200 0.5424
-7 2 11 1.4226 1.2764
-7 2 12 0.7388 -0.9959
-7 2 13 -3.1433 1.0329
-7 3 1 1.4125 -0.8789
-7 3 2 5.2803 0.9548
-7 3 3 -2.0637 -0.3231
-7 3 4 -2.5754 0.0803
-7 3 5 -1.8455 -0.3610
-7 3 6 0.9547 0.8631
-7 3 7 -4.1385 -0.5457
-7 3 8 2.7687 -0.5159
-7 3 9 1.7814 -0.0123
-7 3 10 -2.1362 0.8876
-7 3 11 -0.5394 -1.3152
-7 3 12 -0.5198 -1.4510
-7 3 13 2.7113 2.0102
-7 4 1 -1.1992 -1.1954
-7 4 2 -0.4554 1.3366
-7 4 3 0.2019 -0.4803
-7 4 4 0.2940 0.0497
-7 4 5 3.1515 -0.1173
-7 4 6 -6.1553 0.5176
-7 4 7 2.1287 -0.9722
-7 4 8 -2.1118 -0.3570
-7 4 9 -2.7256 0.9529
-7 4 10 2.1215 0.6805
-7 4 11 -0.3715 -0.7751
-7 4 12 0.6070 2.3148
-7 5 1 -1.4662 -1.3131
-7 5 2 1.6511 1.4644
-7 5 3 0.5071 -0.7338
-7 5 4 0.2102 0.1821
-7 5 5 -0.0087 0.4249
-7 5 6 0.6591 0.3944
-7 5 7 -0.2680 -0.2022
-7 5 8 -0.2731 -0.4829
-7 5 9 1.8875 0.2874
-7 5 10 0.5024 -1.5549
-7 5 11 1.1722 0.6013
-7 6 1 0.7289 -1.5327
-7 6 2 0.4552 1.4800
-7 6 3 5.0094 -1.2491
-7 6 4 -1.9033 0.2295
-7 6 5 0.2485 0.2010
-7 6 6 -0.4951 0.8879
-7 6 7 3.1897 0.0827
-7 6 8 -1.3072 -0.1674
-7 6 9 -0.5390 -0.3117
-7 6 10 -4.5705 0.1624
-7 6 11 1.8097 -0.9591
-7 7 1 -4.0711 -1.6817
-7 7 2 -3.2343 1.4103
-7 7 3 -1.7646 -1.2377
-7 7 4 2.4133 0.8321
-7 7 5 1.6532 -0.8426
-7 7 6 -2.7694 0.6102
-7 7 7 0.4041 -0.0672
-7 7 8 0.1207 0.1541
-7 7 9 1.4313 0.9286
-7 7 10 0.6346 -1.7623
-7 8 1 -1.5225 -1.8161
-7 8 2 2.8028 1.3515
-7 8 3 -3.3049 -0.6211
-7 8 4 0.5055 -0.2459
-7 8 5 1.5371 -1.3319
-7 8 6 -0.6473 0.3389
-7 8 7 2.0911 -0.1466
-7 8 8 -0.6714 0.6048
-7 8 9 -1.0067 -0.7797
-7 9 1 0.7249 -1.4499
-7 9 2 -0.2116 1.4134
-7 9 3 -1.0721 -0.4141
-7 9 4 0.3919 0.0617
-7 9 5 -1.4944 -0.6749
-7 9 6 0.5215 0.7411
-7 9 7 -1.4014 -0.6890
-7 9 8 0.1630 0.2245
-7 10 1 -0.3120 -1.0838
-7 10 2 1.3776 2.1778
-7 10 3 -0.2262 -0.6752
-7 10 4 -2.3289 -0.0420
-7 10 5 -0.1467 0.8026
-7 10 6 1.6801 0.2325
-7 10 7 -1.0185 -0.1911
-7 11 1 0.2636 -1.2702
-7 11 2 0.7544 0.3923
-7 11 3 0.9072 -0.3881
-7 11 4 -0.9337 1.4485
-7 11 5 1.0072 0.3200
-7 11 6 -0.4053 -0.3079
-7 12 1 0.3788 -4.7290
-7 12 2 0.6419 1.7091
-7 12 3 1.7740 1.8702
-7 12 4 -0.2024 -1.0302
-7 12 5 -0.5097 -3.9360
-7 13 1 0.7982 -3.8132
-7 13 2 -1.8434 2.1801
-7 13 3 0.5384 -5.9448
-7 14 1 -0.5461 -3.5528
-6 -11 4 1.0586 3.1592
-6 -11 5 -1.2685 1.8745
-6 -11 6 -0.5792 -0.2199
-6 -11 7 -1.0677 0.1558
-6 -11 8 -1.5462 -0.2491
-6 -11 9 0.4068 0.0220
-6 -11 10 -1.7260 -0.9280
-6 -11 11 -1.4866 1.2356
-6 -11 12 2.3150 1.1629
-6 -10 2 1.8344 2.2477
-6 -10 3 -1.4373 -0.6645
-6 -10 4 -0.5005 0.6014
-6 -10 5 1.5614 0.3548
-6 -10 6 0.2782 0.0694
-6 -10 7 0.4129 1.9957
-6 -10 8 1.1011 1.3557
-6 -10 9 -0.6200 0.3451
-6 -10 10 -1.7993 -0.3840
-6 -10 11 0.5258 0.2125
-6 -10 12 2.1207 -0.5487
-6 -10 13 0.6932 1.5308
-6 -10 14 -0.1402 1.2606
-6 -9 1 0.6301 5.5404
-6 -9 2 -0.6641 -1.7233
-6 -9 3 2.1284 0.2472
-6 -9 4 -2.4650 0.1609
-6 -9 5 -0.5405 -0.1183
-6 -9 6 1.0940 0.2132
-6 -9 7 0.1969 0.3578
-6 -9 8 1.6444 0.0185
-6 -9 9 2.0704 1.0001
-6 -9 10 0.1021 -0.3955
-6 -9 11 0.9080 0.6177
-6 -9 12 -2.3503 0.1890
-6 -9 13 -0.5488 0.2239
-6 -9 14 1.3901 2.4772
-6 -8 1 2.0266 3.5790
-6 -8 2 0.4857 -1.4280
-6 -8 3 0.9470 0.2416
-6 -8 4 1.3708 -0.7486
-6 -8 5 0.8362 -0.8675
-6 -8 6 -2.0404 -1.0899
-6 -8 7 1.7445 -0.4630
-6 -8 8 -3.0263 -0.0123
-6 -8 9 -0.7482 -0.3956
-6 -8 10 0.6037 -0.5938
-6 -8 11 -1.3560 0.5008
-6 -8 12 0.5326 -1.5544
-6 -8 13 -0.8891 -0.1880
-6 -8 14 3.5969 1.0969
-6 -8 15 -1.2811 3.7805
-6 -7 1 -0.0615 0.9199
-6 -7 2 -0.8175 -1.5899
-6 -7 3 0.4645 0.8647
-6 -7 4 2.5203 -0.2155
-6 -7 5 -0.9243 -0.1395
-6 -7 6 -1.9593 -0.6491
-6 -7 7 1.1150 0.2372
-6 -7 8 1.8745 -0.4190
-6 -7 9 -0.2364 -0.1323
-6 -7 10 -0.7009 0.4190
-6 -7 11 2.1722 0.0799
-6 -7 12 1.6017 -0.2265
-6 -7 13 0.4416 -1.4238
-6 -7 14 -2.0998 0.3702
-6 -7 15 2.2270 2.5655
-6 -6 1 -4.2966 0.9098
-6 -6 2 -1.3709 -0.7119
-6 -6 3 -2.3189 1.4417
-6 -6 4 -0.8359 0.7472
-6 -6 5 -1.9427 -0.0123
-6 -6 6 0.2791 -0.4475
-6 -6 7 -1.0870 0.8740
-6 -6 8 1.9005 -0.3706
-6 -6 9 -2.3660 -0.0558
-6 -6 10 -0.4523 -0.2108
-6 -6 11 -2.0247 0.5842
-6 -6 12 2.8697 -1.0739
-6 -6 13 0.9794 -0.9989
-6 -6 14 -0.4447 -1.5356
-6 -6 15 -0.3842 0.5593
-6 -6 16 0.9097 3.7259
-6 -5 1 -0.0410 0.4079
-6 -5 2 2.1847 -0.8355
-6 -5 3 -3.1999 0.9136
-6 -5 4 4.0085 0.1349
-6 -5 5 1.2407 -0.2149
-6 -5 6 -0.6808 0.0511
-6 -5 7 -1.2369 0.7856
-6 -5 8 1.9143 -0.0000
-6 -5 9 -1.5775 -0.1532
-6 -5 10 2.1466 0.5270
-6 -5 11 -3.8697 0.4438
-6 -5 12 -0.9525 0.5750
-6 -5 13 -2.5100 0.0833
-6 -5 14 1.5136 -0.9540
-6 -5 15 0.0612 -1.2801
-6 -5 16 -2.3299 4.0221
-6 -4 1 4.2554 0.4324
-6 -4 2 -1.2728 -1.4161
-6 -4 3 1.3755 0.7533
-6 -4 4 0.6868 0.1415
-6 -4 5 1.3163 0.0566
-6 -4 6 -0.2483 -0.3895
-6 -4 7 1.4357 0.6794
-6 -4 8 0.6226 -0.4130
-6 -4 9 -0.2086 0.0836
-6 -4 10 -0.5407 0.2075
-6 -4 11 0.9564 0.4433
-6 -4 12 -1.1981 0.5789
-6 -4 13 -0.1074 -0.4132
-6 -4 14 -0.8396 -0.4863
-6 -4 15 -0.2956 -2.1901
-6 -4 16 -0.6844 3.5389
-6 -3 1 -2.0517 0.0813
-6 -3 2 1.5140 -1.1616
-6 -3 3 0.6958 0.5284
-6 -3 4 -2.7775 -0.4223
-6 -3 5 -4.3245 0.0227
-6 -3 6 1.8577 -0.6021
-6 -3 7 -5.7090 -0.1201
-6 -3 8 6.6355 -0.4380
-6 -3 9 -2.5079 0.0141
-6 -3 10 -0.3597 -0.0741
-6 -3 11 1.3747 0.2053
-6 -3 12 2.6123 0.2850
-6 -3 13 1.6133 0.6437
-6 -3 14 -0.6192 0.3030
-6 -3 15 -1.7476 -0.4177
-6 -2 1 -3.4726 0.7049
-6 -2 2 3.0883 -1.2989
-6 -2 3 -2.5218 0.3706
-6 -2 4 -0.6348 0.0302
-6 -2 5 0.3403 0.4078
-6 -2 6 5.5960 -0.7757
-6 -2 7 -7.1116 0.6211
-6 -2 8 5.0838 -0.2638
-6 -2 9 3.6671 -0.1880
-6 -2 10 -1.0648 -0.8087
-6 -2 11 -0.8988 0.2688
-6 -2 12 0.3532 -0.2082
-6 -2 13 -0.0775 -0.1114
-6 -2 14 0.7834 -0.5520
-6 -2 15 2.1606 2.3764
-6 -1 1 0.2857 1.1703
-6 -1 2 -0.6921 -0.9648
-6 -1 3 6.4417 0.9261
-6 -1 4 5.5161 -0.0069
-6 -1 5 1.7980 0.0107
-6 -1 6 -0.6878 -0.4177
-6 -1 7 -4.0594 0.7613
-6 -1 8 -0.7032 -0.1640
-6 -1 9 -0.6120 -0.4911
-6 -1 10 -1.8151 -0.4272
-6 -1 11 0.3532 0.8916
-6 -1 12 -1.2880 0.1180
-6 -1 13 1.4511 0.1268
-6 -1 14 -0.8172 -0.9885
-6 -1 15 -3.6108 3.7025
-6 0 1 -4.9431 0.6386
-6 0 2 -6.3624 -1.2687
-6 0 3 -5.0636 0.6649
-6 0 4 -1.4285 0.2896
-6 0 5 -8.7091 0.2050
-6 0 6 3.9582 -0.2606
-6 0 7 -3.7527 1.0996
-6 0 8 0.9910 0.1596
-6 0 9 -1.2510 -0.6568
-6 0 10 1.9014 0.1007
-6 0 11 -1.3996 0.4969
-6 0 12 -0.6830 -0.0211
-6 0 13 -0.1991 -1.2809
-6 0 14 -0.1725 -0.8468
-6 0 15 -0.3723 3.7842
-6 1 1 4.1371 0.6446
-6 1 2 3.0971 -1.6005
-6 1 3 1.1355 0.9216
-6 1 4 6.7926 -0.0687
-6 1 5 0.0623 -0.0275
-6 1 6 6.8863 -0.7997
-6 1 7 -0.2391 1.0503
-6 1 8 -1.0746 -0.0814
-6 1 9 0.8968 -0.1783
-6 1 10 1.9794 0.0275
-6 1 11 -1.7583 0.1813
-6 1 12 0.9948 -0.0077
-6 1 13 2.2016 -0.1628
-6 1 14 1.1139 0.2480
-6 2 1 -0.4469 0.9841
-6 2 2 -4.9345 -1.5933
-6 2 3 -0.5060 0.7236
-6 2 4 -3.0409 -0.2549
-6 2 5 -1.5793 -0.3043
-6 2 6 2.7841 -0.9504
-6 2 7 -3.8005 0.9541
-6 2 8 2.7862 -0.2976
-6 2 9 -3.7887 0.1901
-6 2 10 1.5929 -0.2552
-6 2 11 -1.0893 -0.2996
-6 2 12 0.6575 -0.1367
-6 2 13 -1.3261 -0.9947
-6 2 14 0.6054 3.8860
-6 3 1 2.2258 0.8255
-6 3 2 1.8815 -1.0264
-6 3 3 1.5259 0.6305
-6 3 4 -1.1564 -0.4054
-6 3 5 0.4407 0.2084
-6 3 6 -0.4518 -0.6740
-6 3 7 0.7508 0.4641
-6 3 8 1.1747 -0.6685
-6 3 9 0.1906 -0.0352
-6 3 10 2.5576 0.1627
-6 3 11 -3.8684 0.4330
-6 3 12 1.9223 1.1269
-6 3 13 1.0942 -0.2013
-6 4 1 0.5256 1.4470
-6 4 2 -0.7081 -1.0514
-6 4 3 -0.9447 0.2016
-6 4 4 -1.0949 0.0778
-6 4 5 1.8493 0.5219
-6 4 6 -2.5658 -0.3445
-6 4 7 0.5294 0.5529
-6 4 8 1.6335 -0.6549
-6 4 9 -1.3220 0.8200
-6 4 10 1.7157 -0.1155
-6 4 11 -3.5019 -0.1360
-6 4 12 0.5557 -1.1907
-6 4 13 2.7643 3.8275
-6 5 1 4.8721 1.1359
-6 5 2 -2.1547 -1.3065
-6 5 3 -0.2155 0.7735
-6 5 4 -0.0473 0.5724
-6 5 5 -2.6157 0.2170
-6 5 6 0.1596 -0.6492
-6 5 7 1.1393 0.7275
-6 5 8 -1.4022 -0.0860
-6 5 9 0.3448 0.2428
-6 5 10 1.0013 -1.0521
-6 5 11 -0.4639 -0.1441
-6 5 12 0.5334 1.7311
-6 6 1 -0.0577 0.8999
-6 6 2 -1.6849 -1.1383
-6 6 3 5.1644 1.0073
-6 6 4 -0.1851 -0.0395
-6 6 5 1.4199 -0.7543
-6 6 6 0.3100 -0.4233
-6 6 7 -5.7481 0.8036
-6 6 8 1.2065 0.0994
-6 6 9 -1.0025 -0.6811
-6 6 10 3.0947 0.7536
-6 6 11 -3.2792 0.7394
-6 7 1 -0.0748 1.0340
-6 7 2 -0.3161 -1.2216
-6 7 3 -1.9545 0.3548
-6 7 4 2.1741 -0.0961
-6 7 5 0.2933 -0.4963
-6 7 6 -1.6087 -0.3117
-6 7 7 4.2229 1.2038
-6 7 8 0.0030 -1.2677
-6 7 9 -0.7020 -0.2896
-6 7 10 1.5532 -0.4881
-6 7 11 -3.3044 5.1198
-6 8 1 2.8712 0.8328
-6 8 2 -0.8952 -1.5456
-6 8 3 0.5498 0.4475
-6 8 4 0.6549 -0.0698
-6 8 5 -2.3562 0.2122
-6 8 6 4.9552 0.1105
-6 8 7 -0.3882 -0.1048
-6 8 8 -4.3953 -0.8881
-6 8 9 2.6436 0.5079
-6 8 10 0.9474 1.0207
-6 9 1 -0.6334 1.2797
-6 9 2 -1.9498 -0.7017
-6 9 3 -2.5419 0.4222
-6 9 4 2.2772 0.9145
-6 9 5 -0.6648 0.0445
-6 9 6 0.9051 -0.3787
-6 9 7 -1.2699 0.4003
-6 9 8 1.5944 -0.2668
-6 9 9 1.1541 0.0835
-6 10 1 -0.9127 1.4370
-6 10 2 -0.7677 -0.6751
-6 10 3 3.9951 0.6570
-6 10 4 -5.0064 -0.4749
-6 10 5 -2.0492 -0.7063
-6 10 6 -0.4049 1.5332
-6 10 7 -2.4796 -0.2217
-6 10 8 0.7135 1.1551
-6 11 1 0.7096 1.7176
-6 11 2 1.4205 -1.0200
-6 11 3 -2.3654 0.3470
-6 11 4 2.2497 -1.5623
-6 11 5 3.4611 0.4267
-6 11 6 -0.3048 -0.6280
-6 11 7 -1.6790 3.8196
-6 12 1 1.3962 -0.9064
-6 12 2 0.1221 -2.3796
-6 12 3 0.7469 1.7028
-6 12 4 0.2008 -0.6150
-6 12 5 1.3237 1.1651
-6 13 1 -0.7741 -1.8770
-6 13 2 -0.0950 1.4347
-6 13 3 0.0513 1.7011
-6 13 4 -2.6895 0.6481
-6 14 1 -0.8937 2.7145
-6 14 2 -1.2184 4.0168
-5 -13 7 -0.3820 -3.4164
-5 -13 8 1.0023 -2.0694
-5 -13 9 0.2607 -2.6529
-5 -13 10 2.1821 -2.2100
-5 -13 11 0.8382 -3.5996
-5 -12 4 0.3085 -5.1309
-5 -12 5 -0.7086 -4.7903
-5 -12 6 0.7436 -1.6863
-5 -12 7 -0.6958 0.2376
-5 -12 8 -0.1859 0.2449
-5 -12 9 -2.2122 -0.2973
-5 -12 10 1.1076 0.2086
-5 -12 11 -0.1634 -2.7176
-5 -12 12 1.5433 -4.6979
-5 -12 13 0.0722 -3.6613
-5 -11 1 0.6262 -3.0396
-5 -11 2 -1.6672 -1.4669
-5 -11 3 -0.2183 0.2685
-5 -11 4 1.9628 1.1194
-5 -11 5 0.1963 0.9950
-5 -11 6 -1.0434 0.9480
-5 -11 7 0.0587 0.3245
-5 -11 8 0.6594 0.9562
-5 -11 9 -1.8515 1.0129
-5 -11 10 -0.6524 1.2441
-5 -11 11 -0.6349 0.9049
-5 -11 12 0.6694 0.4842
-5 -11 13 1.1188 -2.6892
-5 -11 14 2.0434 -5.4658
-5 -10 1 -0.1164 0.3485
-5 -10 2 -2.1219 0.7233
-5 -10 3 1.2047 0.6323
-5 -10 4 -2.5029 0.5284
-5 -10 5 0.7290 1.1702
-5 -10 6 2.1090 -0.2434
-5 -10 7 -1.6761 -0.7371
-5 -10 8 0.6270 -0.0517
-5 -10 9 1.5373 0.6646
-5 -10 10 0.9313 0.4569
-5 -10 11 -1.4954 1.8432
-5 -10 12 -0.8267 0.9605
-5 -10 13 -0.0354 1.5435
-5 -10 14 0.6725 -3.5137
-5 -10 15 1.7620 -4.0171
-5 -9 1 1.3735 0.5202
-5 -9 2 -1.5921 0.5297
-5 -9 3 0.5759 -0.7333
-5 -9 4 -0.9905 0.0326
-5 -9 5 -0.7886 0.1918
-5 -9 6 -0.9049 0.2701
-5 -9 7 1.1389 -0.5668
-5 -9 8 0.9739 -0.0283
-5 -9 9 -0.9369 -0.4885
-5 -9 10 1.0927 -0.2626
-5 -9 11 -1.0977 0.5333
-5 -9 12 -0.5987 0.3850
-5 -9 13 -2.1837 1.3076
-5 -9 14 0.7049 0.7701
-5 -9 15 -2.2709 -2.0418
-5 -9 16 1.7619 -3.2076
-5 -8 1 1.9534 -0.1677
-5 -8 2 1.2088 0.2682
-5 -8 3 2.0644 -0.5744
-5 -8 4 1.0016 -0.5017
-5 -8 5 0.5247 0.2652
-5 -8 6 1.4217 0.3666
-5 -8 7 -1.2463 -0.9079
-5 -8 8 -1.7530 -0.0957
-5 -8 9 0.0128 -0.6114
-5 -8 10 1.3981 -0.3408
-5 -8 11 -0.0534 -0.5680
-5 -8 12 0.0574 1.1861
-5 -8 13 1.0564 0.6946
-5 -8 14 -1.0702 0.0557
-5 -8 15 -0.6265 0.7534
-5 -8 16 2.3703 -2.2344
-5 -7 1 1.5549 -0.5305
-5 -7 2 -2.1400 0.1982
-5 -7 3 -1.6156 -0.4275
-5 -7 4 0.4600 -0.7972
-5 -7 5 -0.3288 0.3251
-5 -7 6 0.4044 0.4141
-5 -7 7 -0.5292 -0.3497
-5 -7 8 1.5528 0.5521
-5 -7 9 2.8607 -1.1419
-5 -7 10 -1.3271 -0.3168
-5 -7 11 2.5056 -0.2750
-5 -7 12 -1.0596 -0.1276
-5 -7 13 -0.1325 0.1739
-5 -7 14 -0.0645 0.9182
-5 -7 15 0.7959 -0.3012
-5 -7 16 -0.0375 -1.2571
-5 -6 1 -2.9098 0.1141
-5 -6 2 0.8926 0.7415
-5 -6 3 -2.0448 0.0834
-5 -6 4 -0.3222 -0.5420
-5 -6 5 -0.2069 0.5804
-5 -6 6 -1.3781 0.2955
-5 -6 7 -1.5998 0.2508
-5 -6 8 -2.5524 0.4041
-5 -6 9 0.8405 -0.1328
-5 -6 10 -0.4699 -0.1770
-5 -6 11 0.2064 -0.9122
-5 -6 12 2.8978 -0.1732
-5 -6 13 -0.7286 0.0949
-5 -6 14 1.1238 0.6232
-5 -6 15 2.0470 -0.4728
-5 -6 16 -2.8234 -0.9770
-5 -5 1 1.1843 -0.2009
-5 -5 2 2.7058 0.4365
-5 -5 3 0.5521 0.1771
-5 -5 4 1.1941 -0.8013
-5 -5 5 0.4642 0.3297
-5 -5 6 -0.1687 0.2247
-5 -5 7 2.5463 0.0354
-5 -5 8 -3.6370 0.9512
-5 -5 9 -0.1460 0.0378
-5 -5 10 -0.7131 0.7595
-5 -5 11 -0.0278 -1.0656
-5 -5 12 -2.2269 0.3095
-5 -5 13 -1.2253 -0.2766
-5 -5 14 -0.5538 0.6867
-5 -5 15 -1.4855 -0.4245
-5 -5 16 3.3786 -0.8326
-5 -4 1 -1.6426 0.0967
-5 -4 2 4.7744 0.8568
-5 -4 3 -3.0020 0.0812
-5 -4 4 1.0541 -0.5538
-5 -4 5 3.0315 0.3532
-5 -4 6 2.0460 -0.2769
-5 -4 7 0.5615 -0.6327
-5 -4 8 -1.5292 0.6768
-5 -4 9 -0.2473 0.4008
-5 -4 10 -1.1874 0.0595
-5 -4 11 -0.2577 -0.2718
-5 -4 12 0.6420 0.3901
-5 -4 13 0.1494 -0.4363
-5 -4 14 0.7036 0.8680
-5 -4 15 -0.8043 -0.8571
-5 -4 16 -1.8601 -1.3184
-5 -3 1 -15.2611 0.2415
-5 -3 2 -2.9960 0.2389
-5 -3 3 -2.6659 -0.4504
-5 -3 4 -1.1046 -0.4161
-5 -3 5 1.3846 -0.0410
-5 -3 6 -1.7501 -0.4176
-5 -3 7 1.3157 -0.2981
-5 -3 8 0.0494 0.2921
-5 -3 9 1.5493 -0.2202
-5 -3 10 3.2494 0.1032
-5 -3 11 -1.0977 0.1234
-5 -3 12 0.9655 0.2785
-5 -3 13 0.3437 -0.9078
-5 -3 14 -0.4700 0.3865
-5 -3 15 -0.9120 -0.3989
-5 -3 16 1.3956 -1.4386
-5 -2 1 20.4989 0.5833
-5 -2 2 -6.0149 -0.0266
-5 -2 3 2.6752 -0.1331
-5 -2 4 -9.4385 -0.1151
-5 -2 5 4.5391 0.4093
-5 -2 6 -1.5375 -0.2411
-5 -2 7 4.0788 -0.5778
-5 -2 8 1.3456 0.0747
-5 -2 9 -0.9761 -0.1775
-5 -2 10 -1.4691 -0.1926
-5 -2 11 -1.5617 0.1817
-5 -2 12 1.6562 0.0478
-5 -2 13 -0.7052 -0.2931
-5 -2 14 3.0889 1.3332
-5 -2 15 1.2365 0.1081
-5 -2 16 2.7737 -2.4372
-5 -1 1 20.0280 0.8708
-5 -1 2 1.3552 -0.1301
-5 -1 3 -0.5651 0.3631
-5 -1 4 5.3433 0.6076
-5 -1 5 -5.3087 0.0149
-5 -1 6 -1.0454 -0.0089
-5 -1 7 -0.6558 -0.5546
-5 -1 8 -2.5343 0.7765
-5 -1 9 -0.9193 -0.2715
-5 -1 10 1.7397 -0.4136
-5 -1 11 1.4659 0.4470
-5 -1 12 -1.8040 0.1303
-5 -1 13 -2.6606 0.0614
-5 -1 14 0.9161 0.7392
-5 -1 15 0.7907 -0.7803
-5 0 1 -16.3248 0.7312
-5 0 2 12.1743 -0.0789
-5 0 3 -8.4347 0.3228
-5 0 4 3.3608 -0.3207
-5 0 5 -2.6311 0.2748
-5 0 6 -1.3690 0.0923
-5 0 7 0.7719 -0.0283
-5 0 8 1.5504 0.9054
-5 0 9 -0.7003 -0.3920
-5 0 10 0.2380 -0.1981
-5 0 11 2.4125 -0.1754
-5 0 12 -3.2774 -0.3706
-5 0 13 0.8929 0.2297
-5 0 14 -2.4933 1.3301
-5 0 15 5.9921 -1.8377
-5 1 1 -8.9849 0.7577
-5 1 2 1.2179 -0.2536
-5 1 3 4.6901 0.0689
-5 1 4 4.1467 -0.4650
-5 1 5 -0.3017 0.5713
-5 1 6 2.8692 0.1863
-5 1 7 -0.4907 -0.4315
-5 1 8 -1.4443 0.5909
-5 1 9 0.6011 -0.0387
-5 1 10 -2.0619 0.2829
-5 1 11 2.5966 -0.1450
-5 1 12 1.3126 -0.6880
-5 1 13 -4.3148 -0.4402
-5 1 14 0.6303 1.0170
-5 1 15 2.8365 -4.0696
-5 2 1 0.8862 0.6883
-5 2 2 -1.4392 -0.5104
-5 2 3 -2.5502 0.1308
-5 2 4 -2.9615 -0.8405
-5 2 5 -0.8613 0.8145
-5 2 6 1.8286 -0.3134
-5 2 7 -3.2871 -1.2682
-5 2 8 0.7239 0.2695
-5 2 9 1.8592 0.1003
-5 2 10 -3.7306 0.3647
-5 2 11 0.6952 -0.5934
-5 2 12 2.5933 -0.6953
-5 2 13 -0.7705 1.2725
-5 2 14 -1.0652 -0.2695
-5 3 1 3.7545 0.4171
-5 3 2 -0.5685 -0.0858
-5 3 3 -1.4926 0.1349
-5 3 4 0.9445 -0.7250
-5 3 5 3.1304 0.6617
-5 3 6 -2.1046 -0.8276
-5 3 7 1.1445 -0.4832
-5 3 8 1.5214 0.8956
-5 3 9 -0.3892 0.1139
-5 3 10 0.3416 0.4305
-5 3 11 3.6297 -0.6668
-5 3 12 -3.8290 0.5231
-5 3 13 0.5154 1.0649
-5 3 14 1.8512 -4.1929
-5 4 1 1.0311 1.0366
-5 4 2 0.0672 -0.0325
-5 4 3 0.1734 0.6277
-5 4 4 -1.1501 -0.3440
-5 4 5 1.9840 0.8817
-5 4 6 3.4104 -0.1523
-5 4 7 -0.3667 -0.2497
-5 4 8 -4.6464 0.1933
-5 4 9 1.7092 -0.4842
-5 4 10 -5.0545 0.2310
-5 4 11 9.7048 -0.2760
-5 4 12 -3.9974 2.8127
-5 4 13 -2.1424 -1.2463
-5 5 1 0.0832 0.9405
-5 5 2 0.3787 -0.5228
-5 5 3 1.1579 0.2822
-5 5 4 -2.6493 -0.0821
-5 5 5 -2.0832 1.1400
-5 5 6 -3.4351 -0.2437
-5 5 7 1.3348 0.2014
-5 5 8 7.4400 0.3591
-5 5 9 -2.0466 -0.2541
-5 5 10 -6.4560 -0.2201
-5 5 11 3.4635 -0.5835
-5 5 12 0.6165 0.6895
-5 6 1 -0.6118 0.8542
-5 6 2 1.3076 -1.0436
-5 6 3 -1.0980 -0.0180
-5 6 4 -1.1645 -0.1834
-5 6 5 -1.9202 0.6947
-5 6 6 2.8544 -0.6963
-5 6 7 -0.9165 -0.2170
-5 6 8 -1.0563 0.2073
-5 6 9 -4.4695 -0.3811
-5 6 10 0.5543 -0.7911
-5 6 11 3.7302 0.2953
-5 6 12 4.1192 -3.4407
-5 7 1 -0.8089 0.9995
-5 7 2 1.9788 -0.8470
-5 7 3 0.4693 -0.2454
-5 7 4 0.6186 -0.1903
-5 7 5 3.3549 -0.1306
-5 7 6 -4.7580 -0.7733
-5 7 7 0.1278 -0.0079
-5 7 8 3.3762 0.5583
-5 7 9 3.5332 0.5465
-5 7 10 -4.7269 1.6390
-5 7 11 -7.3877 -1.7093
-5 8 1 -1.7124 2.2891
-5 8 2 1.0597 -0.3400
-5 8 3 2.1267 -0.0783
-5 8 4 4.9536 -0.7646
-5 8 5 -5.0571 0.3073
-5 8 6 1.9808 0.4117
-5 8 7 2.2901 -0.1657
-5 8 8 -1.7982 0.1879
-5 8 9 0.4375 0.3816
-5 8 10 4.1216 0.2021
-5 9 1 -0.0901 2.3030
-5 9 2 -2.1832 -0.7463
-5 9 3 0.7440 0.1944
-5 9 4 -3.7597 -0.2931
-5 9 5 4.2748 1.6017
-5 9 6 -0.5134 0.4068
-5 9 7 -1.2175 -1.8736
-5 9 8 4.3742 -0.3795
-5 9 9 -0.2283 0.7160
-5 10 1 0.4008 1.3666
-5 10 2 -1.2701 -0.8110
-5 10 3 -6.2192 1.0202
-5 10 4 1.2386 0.3969
-5 10 5 -0.2138 0.8895
-5 10 6 -6.0076 -1.4350
-5 10 7 0.1160 -1.1485
-5 10 8 -3.3958 1.0852
-5 11 1 -3.0434 0.9605
-5 11 2 5.9461 -1.2311
-5 11 3 2.3871 1.0424
-5 11 4 0.0822 -1.0736
-5 11 5 1.9682 0.0434
-5 11 6 -0.7463 0.0998
-5 11 7 0.0505 3.1420
-5 12 1 3.9288 1.7102
-5 12 2 -3.9676 -1.9330
-5 12 3 1.5843 -0.8714
-5 12 4 1.6830 -2.6387
-5 12 5 -1.8692 -0.3210
-5 12 6 8.0757 6.2497
-5 13 1 -0.0938 3.2519
-5 13 2 -0.1500 -0.3103
-5 13 3 -2.9574 0.0647
-5 13 4 3.4653 2.4403
-5 14 1 -3.0406 3.8115
-5 14 2 -0.2009 -1.9049
-5 14 3 2.0739 5.9493
-5 15 1 3.1989 5.4762
-4 -14 7 -3.0039 0.2932
-4 -14 8 1.3340 1.7266
-4 -14 9 -0.1116 1.3650
-4 -14 10 -0.2847 1.4629
-4 -14 11 -2.8673 1.5765
-4 -13 3 -0.9583 -0.3919
-4 -13 4 -2.1667 -0.5721
-4 -13 5 -1.3486 -2.0209
-4 -13 6 1.2341 0.0028
-4 -13 7 0.0113 -0.8363
-4 -13 8 0.9448 -2.2457
-4 -13 9 -0.7574 -2.1458
-4 -13 10 0.8164 -0.2671
-4 -13 11 0.4678 -1.7578
-4 -13 12 -0.7929 0.0054
-4 -13 13 -0.5406 1.0559
-4 -13 14 -2.2963 0.9499
-4 -12 1 -1.6389 -5.3520
-4 -12 2 1.2858 0.1412
-4 -12 3 0.0159 0.0861
-4 -12 4 1.6781 -1.3240
-4 -12 5 0.4705 -0.4616
-4 -12 6 -2.6585 -1.2520
-4 -12 7 -1.1717 -0.6850
-4 -12 8 0.2785 -0.7504
-4 -12 9 -0.4995 -0.0703
-4 -12 10 1.2033 -1.9988
-4 -12 11 -0.6594 -1.0606
-4 -12 12 -2.1693 -0.7258
-4 -12 13 1.8296 0.1428
-4 -12 14 -3.4501 -1.2145
-4 -12 15 -1.0600 -0.0927
-4 -11 1 0.3408 -5.3025
-4 -11 2 -0.0489 0.2871
-4 -11 3 1.4967 -0.6352
-4 -11 4 -1.3222 0.9033
-4 -11 5 0.8226 0.5757
-4 -11 6 2.5254 1.4158
-4 -11 7 0.7421 1.3684
-4 -11 8 -0.1914 1.1288
-4 -11 9 -0.5794 0.5048
-4 -11 10 -1.7457 0.5463
-4 -11 11 4.0035 -0.0683
-4 -11 12 -0.0682 -0.7983
-4 -11 13 2.0173 0.4405
-4 -11 14 1.4725 0.6974
-4 -11 15 0.3650 -1.3101
-4 -11 16 -5.4180 -0.9921
-4 -10 1 -1.1708 -0.5218
-4 -10 2 -0.7764 1.7319
-4 -10 3 -1.1895 -0.4613
-4 -10 4 0.1760 0.2987
-4 -10 5 0.3264 -0.0659
-4 -10 6 -1.0544 -0.3609
-4 -10 7 -0.0175 0.3817
-4 -10 8 -0.7524 0.5673
-4 -10 9 0.6322 0.7050
-4 -10 10 -0.2722 0.6207
-4 -10 11 0.0112 -0.7678
-4 -10 12 -0.7057 0.2427
-4 -10 13 0.5202 -0.1053
-4 -10 14 -0.9933 0.3335
-4 -10 15 1.1786 0.5254
-4 -10 16 0.2924 -0.6749
-4 -9 1 -0.0820 -0.9547
-4 -9 2 1.4444 1.1579
-4 -9 3 -1.3242 -0.5870
-4 -9 4 -0.8456 0.5301
-4 -9 5 -0.0794 -1.0431
-4 -9 6 -0.4607 -0.2838
-4 -9 7 0.8913 -0.5684
-4 -9 8 -0.5885 -0.3678
-4 -9 9 0.1503 0.4174
-4 -9 10 -1.1896 0.4582
-4 -9 11 -2.0033 0.6250
-4 -9 12 -0.8256 -0.3357
-4 -9 13 0.0807 -0.0243
-4 -9 14 1.2147 -0.2906
-4 -9 15 -1.4540 0.7690
-4 -9 16 1.7734 -2.6179
-4 -8 1 0.4508 -1.2621
-4 -8 2 0.6259 0.0219
-4 -8 3 0.6893 -0.5032
-4 -8 4 1.7077 0.5643
-4 -8 5 -0.4612 -0.0562
-4 -8 6 1.7132 -0.0918
-4 -8 7 0.7812 -0.2991
-4 -8 8 -0.9350 -0.3047
-4 -8 9 0.9627 0.0439
-4 -8 10 0.0029 -0.1410
-4 -8 11 0.3318 -0.0506
-4 -8 12 0.1361 -0.0338
-4 -8 13 0.7958 -0.3170
-4 -8 14 -0.9461 1.7132
-4 -8 15 1.3786 0.0978
-4 -8 16 -0.7590 -0.2752
-4 -8 17 1.5857 -3.0983
-4 -7 1 0.7030 -1.2732
-4 -7 2 0.1846 0.7149
-4 -7 3 -0.7914 -0.1593
-4 -7 4 -1.4929 0.2500
-4 -7 5 -2.1968 -0.4702
-4 -7 6 0.4459 0.2757
-4 -7 7 1.7961 -0.6743
-4 -7 8 0.1175 -0.2294
-4 -7 9 1.1669 -0.2099
-4 -7 10 1.0315 0.2098
-4 -7 11 -0.0800 -0.4958
-4 -7 12 -0.5640 -0.3080
-4 -7 13 -0.5529 -0.0188
-4 -7 14 -0.8945 0.1962
-4 -7 15 -0.7413 0.2608
-4 -7 16 0.3457 2.2077
-4 -7 17 -0.5003 -4.0770
-4 -6 1 1.7517 -0.7654
-4 -6 2 0.9831 0.5372
-4 -6 3 0.0041 -0.4464
-4 -6 4 -1.1352 0.5025
-4 -6 5 0.1539 0.2703
-4 -6 6 -1.7587 0.5970
-4 -6 7 0.5925 -0.3336
-4 -6 8 -0.8225 0.2600
-4 -6 9 -0.0843 0.2455
-4 -6 10 1.0198 0.3048
-4 -6 11 0.9393 -0.1749
-4 -6 12 0.5150 -0.2731
-4 -6 13 0.5953 -0.1360
-4 -6 14 1.2413 -0.3388
-4 -6 15 -0.7767 0.5288
-4 -6 16 -0.6701 2.6624
-4 -6 17 1.8264 -4.2221
-4 -5 1 -1.8674 -0.7987
-4 -5 2 -2.4449 0.9254
-4 -5 3 8.4704 -0.5359
-4 -5 4 -0.4566 0.3386
-4 -5 5 -1.8353 -0.1253
-4 -5 6 -0.7746 0.5825
-4 -5 7 -0.7611 -0.3271
-4 -5 8 -1.5165 -0.4355
-4 -5 9 -1.7865 0.5959
-4 -5 10 0.9007 0.3166
-4 -5 11 -0.7330 -0.0326
-4 -5 12 -2.4516 -0.1675
-4 -5 13 -0.4403 -0.1780
-4 -5 14 4.3702 -1.0659
-4 -5 15 -0.9795 0.5761
-4 -5 16 -1.5930 2.8152
-4 -5 17 3.9458 -4.4083
-4 -4 1 -5.0889 -0.8620
-4 -4 2 2.0676 0.4713
-4 -4 3 -1.7609 -0.8700
-4 -4 4 2.1414 0.1818
-4 -4 5 -1.9588 0.1546
-4 -4 6 3.1344 0.5461
-4 -4 7 1.5357 -0.5043
-4 -4 8 -1.0543 -0.1360
-4 -4 9 -0.4557 0.0811
-4 -4 10 -0.2058 0.5083
-4 -4 11 0.4763 -0.1451
-4 -4 12 -2.2189 0.0470
-4 -4 13 2.8313 0.1168
-4 -4 14 -5.0893 -1.2201
-4 -4 15 2.2957 0.7382
-4 -4 16 0.7832 2.3346
-4 -4 17 -0.8047 -3.9491
-4 -3 1 -1.7060 -1.2270
-4 -3 2 -1.9637 1.0734
-4 -3 3 0.4764 -1.0564
-4 -3 4 -2.5320 0.5256
-4 -3 5 3.9306 -0.5858
-4 -3 6 -4.2134 0.4837
-4 -3 7 1.2980 -0.4584
-4 -3 8 1.0918 -0.4722
-4 -3 9 1.2278 -0.0427
-4 -3 10 0.6196 0.2931
-4 -3 11 2.2344 -0.0935
-4 -3 12 -0.7365 0.4671
-4 -3 13 -2.7638 -0.2294
-4 -3 14 -1.8317 -1.5597
-4 -3 15 -1.0746 -0.1364
-4 -3 16 -0.5310 0.4135
-4 -2 1 1.6331 -0.9537
-4 -2 2 -7.4168 1.2856
-4 -2 3 8.9814 -1.1682
-4 -2 4 -1.6108 0.4959
-4 -2 5 1.2260 -0.7876
-4 -2 6 2.3049 0.7478
-4 -2 7 -0.0869 -0.0208
-4 -2 8 -2.6742 -0.5725
-4 -2 9 -1.1132 0.0061
-4 -2 10 -1.0292 0.1399
-4 -2 11 3.0239 0.2789
-4 -2 12 3.1279 0.4812
-4 -2 13 0.8348 0.0760
-4 -2 14 1.9742 -0.7033
-4 -2 15 -1.9143 0.7258
-4 -2 16 1.0700 -3.0149
-4 -1 1 -3.1419 -1.1347
-4 -1 2 5.3335 1.1748
-4 -1 3 -9.2015 -0.8191
-4 -1 4 1.9821 0.1544
-4 -1 5 -0.8466 -0.0273
-4 -1 6 -5.4436 1.2724
-4 -1 7 5.9016 -0.0789
-4 -1 8 2.4384 -0.5798
-4 -1 9 -1.7494 -0.1731
-4 -1 10 -2.8054 -0.1014
-4 -1 11 -2.5021 0.0550
-4 -1 12 2.0354 -0.0035
-4 -1 13 1.8090 0.5860
-4 -1 14 -1.5528 1.0678
-4 -1 15 0.6767 1.3134
-4 -1 16 -2.5903 -2.2553
-4 0 1 -6.8297 -1.4330
-4 0 2 -0.5803 1.8328
-4 0 3 7.9127 -1.1152
-4 0 4 -4.1568 0.5784
-4 0 5 -1.4738 -0.7378
-4 0 6 -0.7758 0.8564
-4 0 7 1.1059 -0.5211
-4 0 8 -4.6821 -0.1134
-4 0 9 2.4000 0.4788
-4 0 10 3.4477 0.3994
-4 0 11 -4.5943 -0.0317
-4 0 12 1.4551 -0.0700
-4 0 13 2.7716 -0.5149
-4 0 14 -0.8589 -0.3789
-4 0 15 -2.4690 -0.2372
-4 1 1 5.1968 -1.6501
-4 1 2 -2.3346 1.9739
-4 1 3 -2.0608 -0.8989
-4 1 4 2.4481 0.0560
-4 1 5 4.3899 -0.7489
-4 1 6 -1.2059 1.4286
-4 1 7 1.4662 -0.1744
-4 1 8 1.3750 0.0408
-4 1 9 0.3085 -0.4452
-4 1 10 -1.8353 -0.4117
-4 1 11 -5.3867 -0.3508
-4 1 12 -0.2970 0.0157
-4 1 13 0.9306 0.1537
-4 1 14 0.3359 1.2103
-4 1 15 1.0687 -3.6990
-4 2 1 -9.3426 -1.5563
-4 2 2 2.6617 1.5122
-4 2 3 2.2316 -0.8883
-4 2 4 -1.9404 -0.3338
-4 2 5 -2.8683 -0.7872
-4 2 6 -0.8039 0.9633
-4 2 7 -0.8102 -0.4920
-4 2 8 -1.5982 -0.2074
-4 2 9 4.2238 0.0895
-4 2 10 2.8186 -0.0662
-4 2 11 -1.2493 0.1078
-4 2 12 -1.0828 -0.2665
-4 2 13 3.0030 -0.4322
-4 2 14 -0.1711 -1.6126
-4 3 1 -0.1678 -2.0376
-4 3 2 1.9648 1.4850
-4 3 3 -3.0085 -0.5648
-4 3 4 0.4873 -0.0408
-4 3 5 3.6594 -0.6993
-4 3 6 -3.5653 0.7148
-4 3 7 -0.6465 -0.4929
-4 3 8 0.9426 0.3085
-4 3 9 2.8704 -0.0985
-4 3 10 0.7965 0.3064
-4 3 11 -2.6133 -0.1858
-4 3 12 -0.0280 1.1953
-4 3 13 1.4157 0.6103
-4 3 14 -0.5890 -3.8458
-4 4 1 1.0983 -2.0109
-4 4 2 -2.4512 1.6216
-4 4 3 2.8905 -0.3075
-4 4 4 1.9416 0.5047
-4 4 5 1.5484 -0.6041
-4 4 6 -0.1864 0.6377
-4 4 7 2.4701 -0.1181
-4 4 8 -6.9548 0.5168
-4 4 9 0.3895 0.1475
-4 4 10 3.4922 -0.3108
-4 4 11 -3.1082 0.3985
-4 4 12 -0.7525 -0.4074
-4 4 13 0.8400 -0.2006
-4 5 1 -1.3559 -1.9004
-4 5 2 -0.5557 2.1909
-4 5 3 -3.5032 -0.0553
-4 5 4 -0.4635 0.3217
-4 5 5 0.7371 -0.6576
-4 5 6 4.4424 0.2849
-4 5 7 -3.2683 -0.0565
-4 5 8 -1.1161 0.2697
-4 5 9 0.2638 -0.1889
-4 5 10 5.7459 -0.0031
-4 5 11 -2.1270 0.3902
-4 5 12 -0.6647 0.6966
-4 5 13 -1.5052 -3.3505
-4 6 1 -1.1863 -1.7157
-4 6 2 0.2976 1.4492
-4 6 3 -0.7698 -1.1317
-4 6 4 -1.9118 -0.0885
-4 6 5 -0.2335 -0.3542
-4 6 6 -4.9356 0.4706
-4 6 7 5.3641 -0.2477
-4 6 8 -1.9460 -0.3293
-4 6 9 -2.6419 -1.4693
-4 6 10 2.9178 0.9493
-4 6 11 -0.6274 -0.8801
-4 6 12 2.2135 -0.6183
-4 7 1 2.9484 -2.5761
-4 7 2 3.0777 1.2560
-4 7 3 -0.0357 -1.0983
-4 7 4 -1.9768 0.5929
-4 7 5 -1.8604 -0.1218
-4 7 6 5.7758 0.3687
-4 7 7 -0.7889 -0.5819
-4 7 8 -4.7442 -0.7993
-4 7 9 0.1011 1.2139
-4 7 10 -1.6634 0.3480
-4 7 11 -1.5686 -1.1290
-4 8 1 -1.9990 -2.2208
-4 8 2 2.1738 1.7186
-4 8 3 -0.5586 -0.2256
-4 8 4 3.2937 0.1671
-4 8 5 0.6725 -0.3256
-4 8 6 0.7706 0.4444
-4 8 7 -0.3453 -0.1083
-4 8 8 3.1253 0.8686
-4 8 9 0.3488 2.0556
-4 8 10 0.4842 -3.6706
-4 9 1 -2.2049 -2.1815
-4 9 2 -2.5941 2.3653
-4 9 3 4.7946 -0.8670
-4 9 4 -1.7457 -0.1133
-4 9 5 -1.0021 0.0940
-4 9 6 1.7538 0.3664
-4 9 7 -1.0018 -0.0834
-4 9 8 1.5314 2.1639
-4 9 9 1.7320 -4.1156
-4 10 1 -0.7035 -1.6748
-4 10 2 2.0113 1.6741
-4 10 3 -7.6191 -1.0545
-4 10 4 -2.3821 0.5917
-4 10 5 -0.9984 -1.0216
-4 10 6 -1.1508 0.4784
-4 10 7 0.1542 -0.9493
-4 10 8 -2.2849 -1.8799
-4 11 1 2.6113 -2.5554
-4 11 2 -0.1981 0.4387
-4 11 3 4.1991 -0.9749
-4 11 4 1.1808 0.9131
-4 11 5 1.0410 0.6052
-4 11 6 -2.3897 -1.3215
-4 11 7 0.4103 0.1129
-4 12 1 -1.1351 -1.8604
-4 12 2 1.0957 0.9146
-4 12 3 1.1297 1.0954
-4 12 4 0.0016 0.6317
-4 12 5 2.8450 -1.9026
-4 12 6 1.4291 -0.6527
-4 13 1 -0.8192 0.8081
-4 13 2 0.8079 2.0134
-4 13 3 -2.1941 -3.2307
-4 13 4 -2.4758 -0.7493
-4 14 1 -0.6107 0.2455
-4 14 2 0.1203 -3.1635
-4 14 3 -0.0126 -1.3631
-4 15 1 -1.2014 -2.7975
-3 -15 7 1.7408 4.9472
-3 -15 8 0.4371 2.9936
-3 -15 9 -0.5868 3.2731
-3 -15 10 -0.2885 3.2787
-3 -15 11 0.1883 4.4191
-3 -14 3 2.0532 3.8606
-3 -14 4 0.6939 4.6879
-3 -14 5 -1.5947 3.9420
-3 -14 6 0.1324 0.9086
-3 -14 7 -0.0504 -0.5027
-3 -14 8 1.3246 -0.4064
-3 -14 9 0.4732 -0.3789
-3 -14 10 -1.0014 -0.5915
-3 -14 11 0.8523 2.5707
-3 -14 12 0.2761 4.6383
-3 -14 13 -0.5969 3.1411
-3 -14 14 2.4842 3.1794
-3 -13 1 0.9587 6.5129
-3 -13 2 0.1364 -1.3089
-3 -13 3 -0.9214 -0.7137
-3 -13 4 0.9944 -1.0126
-3 -13 5 -1.3376 -0.7096
-3 -13 6 -1.1442 -0.9892
-3 -13 7 -0.8460 -0.2813
-3 -13 8 -0.4558 -1.1585
-3 -13 9 1.1512 -0.6281
-3 -13 10 -1.0828 -1.1009
-3 -13 11 0.1707 -1.2672
-3 -13 12 0.4658 -0.8451
-3 -13 13 -2.6820 -1.3829
-3 -13 14 0.9357 3.4637
-3 -13 15 -0.6699 4.5271
-3 -12 1 -1.2400 1.4896
-3 -12 2 0.9035 -1.7354
-3 -12 3 -0.2454 -0.6101
-3 -12 4 0.4290 -0.2218
-3 -12 5 0.5378 -0.6887
-3 -12 6 0.6858 -0.2823
-3 -12 7 -1.5433 0.2483
-3 -12 8 -1.9869 -0.1740
-3 -12 9 0.5219 -0.6105
-3 -12 10 -0.0639 -0.5545
-3 -12 11 -0.6223 -0.7089
-3 -12 12 0.9222 -0.9298
-3 -12 13 -0.1291 -0.8029
-3 -12 14 -1.5097 -1.5999
-3 -12 15 -1.2823 2.3009
-3 -12 16 0.8662 3.4255
-3 -11 1 -0.3710 0.9966
-3 -11 2 -2.4835 -0.9372
-3 -11 3 1.1270 0.4541
-3 -11 4 2.2588 0.1199
-3 -11 5 -0.4228 0.0358
-3 -11 6 0.9935 0.2541
-3 -11 7 3.8857 0.9555
-3 -11 8 -0.6419 0.1567
-3 -11 9 1.0203 0.3858
-3 -11 10 0.8066 0.7370
-3 -11 11 -0.2070 0.4516
-3 -11 12 1.4738 -0.4720
-3 -11 13 0.4968 -1.0070
-3 -11 14 0.3348 -0.2910
-3 -11 15 1.0635 -0.7658
-3 -11 16 -2.1588 3.7694
-3 -10 1 1.0995 1.5926
-3 -10 2 -0.1278 -0.5417
-3 -10 3 -0.9386 1.1327
-3 -10 4 -1.2493 0.8502
-3 -10 5 -0.3989 -0.1601
-3 -10 6 -2.7054 -0.8164
-3 -10 7 -0.3270 0.9922
-3 -10 8 1.1848 -0.4887
-3 -10 9 -3.2667 0.2441
-3 -10 10 1.3908 0.5322
-3 -10 11 -1.1611 0.7655
-3 -10 12 0.5522 0.5563
-3 -10 13 0.6242 -0.7157
-3 -10 14 -0.8199 -0.7660
-3 -10 15 -1.2991 -1.4370
-3 -10 16 -1.3857 1.7457
-3 -10 17 -1.6923 4.1693
-3 -9 1 -0.0305 0.6459
-3 -9 2 1.1066 -1.7309
-3 -9 3 -1.0335 0.5013
-3 -9 4 0.4236 0.0857
-3 -9 5 1.5873 -0.4916
-3 -9 6 0.8417 0.2277
-3 -9 7 -1.8768 0.7189
-3 -9 8 1.6659 -0.7156
-3 -9 9 -1.3744 -0.3836
-3 -9 10 -0.9550 -0.2660
-3 -9 11 -0.0884 0.8218
-3 -9 12 -0.6329 0.1747
-3 -9 13 -1.3388 0.2895
-3 -9 14 1.5486 -0.0528
-3 -9 15 1.4199 -0.8202
-3 -9 16 1.3098 -1.4948
-3 -9 17 0.8938 2.6036
-3 -8 1 0.5248 0.7612
-3 -8 2 -1.8516 -1.0735
-3 -8 3 -0.1376 0.5794
-3 -8 4 0.2930 -0.0068
-3 -8 5 0.5559 -0.4321
-3 -8 6 -0.7726 -0.2796
-3 -8 7 0.6245 0.2105
-3 -8 8 0.6570 -0.3710
-3 -8 9 1.3132 -0.0702
-3 -8 10 -1.4977 -0.6040
-3 -8 11 1.3546 0.7778
-3 -8 12 2.1908 0.2373
-3 -8 13 -0.8755 0.2352
-3 -8 14 -1.0539 -0.4501
-3 -8 15 1.0529 -0.8796
-3 -8 16 1.1050 -1.0800
-3 -8 17 -3.4712 1.7161
-3 -7 1 -0.0542 0.7487
-3 -7 2 1.1411 -0.9608
-3 -7 3 -0.2651 0.3369
-3 -7 4 -1.5739 -0.1103
-3 -7 5 0.5882 -0.1988
-3 -7 6 -2.4133 -0.1585
-3 -7 7 0.5892 0.5949
-3 -7 8 2.0338 -0.2767
-3 -7 9 -0.1347 -0.3996
-3 -7 10 -2.6724 -0.7520
-3 -7 11 1.3271 0.2176
-3 -7 12 0.2762 0.1368
-3 -7 13 -1.6815 0.4000
-3 -7 14 -1.4725 0.3475
-3 -7 15 0.9738 0.0015
-3 -7 16 -3.3390 -0.7304
-3 -7 17 0.3854 0.9608
-3 -6 1 1.2698 0.6235
-3 -6 2 0.5979 -0.9586
-3 -6 3 3.1862 0.7129
-3 -6 4 0.9370 0.0761
-3 -6 5 -0.6638 -0.0341
-3 -6 6 2.0523 -0.0129
-3 -6 7 -1.0911 0.6740
-3 -6 8 2.2449 0.1945
-3 -6 9 0.5900 0.1969
-3 -6 10 -1.2118 -0.8195
-3 -6 11 0.0242 0.1749
-3 -6 12 0.7305 0.3815
-3 -6 13 2.8479 0.7283
-3 -6 14 -2.2367 0.0160
-3 -6 15 0.9156 0.0073
-3 -6 16 1.3642 -0.3840
-3 -6 17 -0.9027 0.6472
-3 -5 1 -1.1603 0.5993
-3 -5 2 -2.1531 -0.5134
-3 -5 3 -5.1420 0.8013
-3 -5 4 6.7770 -0.0636
-3 -5 5 -2.9226 -0.4844
-3 -5 6 -0.0084 -0.3427
-3 -5 7 -4.9078 0.8235
-3 -5 8 0.2398 0.2734
-3 -5 9 1.0126 -0.0635
-3 -5 10 -1.0378 -0.7764
-3 -5 11 1.0923 0.1545
-3 -5 12 0.1529 -0.2969
-3 -5 13 2.1367 0.3800
-3 -5 14 0.4229 -0.4265
-3 -5 15 0.2126 0.3595
-3 -5 16 0.7073 -0.6555
-3 -5 17 -1.3357 0.7394
-3 -4 1 -0.9041 0.0235
-3 -4 2 -1.0605 -0.9196
-3 -4 3 -5.5462 0.7407
-3 -4 4 1.1374 -0.1943
-3 -4 5 0.4098 -0.2791
-3 -4 6 1.9802 -0.6261
-3 -4 7 -0.5985 0.8262
-3 -4 8 1.7191 0.1436
-3 -4 9 0.0638 0.0558
-3 -4 10 -2.1489 -0.2681
-3 -4 11 -3.5607 -0.1348
-3 -4 12 -0.3756 -0.3576
-3 -4 13 0.8856 0.5358
-3 -4 14 -0.0619 -0.1531
-3 -4 15 -0.4868 0.3906
-3 -4 16 0.8332 -1.1366
-3 -4 17 -0.4930 0.6282
-3 -3 1 12.5719 -0.2826
-3 -3 2 -0.5577 -0.8866
-3 -3 3 5.2828 1.0834
-3 -3 4 -7.6848 0.1251
-3 -3 5 0.8694 -0.5353
-3 -3 6 1.4611 -1.1388
-3 -3 7 -4.5522 0.7200
-3 -3 8 3.8971 0.0002
-3 -3 9 -0.5263 0.1684
-3 -3 10 1.1752 0.0967
-3 -3 11 -1.2259 -0.4176
-3 -3 12 -0.5638 -0.5222
-3 -3 13 -3.0321 0.1008
-3 -3 14 -0.1835 0.2584
-3 -3 15 0.5312 0.4194
-3 -3 16 0.4092 -1.3626
-3 -3 17 -2.1597 2.5917
-3 -2 1 2.4780 -0.6480
-3 -2 2 -0.0388 -0.8622
-3 -2 3 -1.4026 0.9798
-3 -2 4 11.4662 0.2385
-3 -2 5 -0.2386 -0.0365
-3 -2 6 -3.4133 -0.9102
-3 -2 7 2.0574 0.7008
-3 -2 8 3.0528 -0.0925
-3 -2 9 -0.0505 0.2837
-3 -2 10 0.2797 0.0391
-3 -2 11 3.1153 -0.1203
-3 -2 12 -0.2930 -0.1980
-3 -2 13 -0.8505 -0.0472
-3 -2 14 2.7033 0.7742
-3 -2 15 0.1144 -0.6072
-3 -2 16 1.7084 0.1288
-3 -1 1 -9.4963 -0.2982
-3 -1 2 1.5997 -0.7278
-3 -1 3 -4.2314 0.8351
-3 -1 4 -7.8917 0.5747
-3 -1 5 5.1343 -0.0231
-3 -1 6 0.2252 -1.1327
-3 -1 7 -2.7487 0.6672
-3 -1 8 0.3871 -0.3117
-3 -1 9 -0.9527 0.3907
-3 -1 10 1.7985 0.3759
-3 -1 11 0.2698 0.6651
-3 -1 12 -0.6989 -0.4449
-3 -1 13 0.2444 -0.2894
-3 -1 14 -1.0564 -0.0348
-3 -1 15 -0.1052 -1.3057
-3 -1 16 -1.7281 3.5370
-3 0 1 23.0642 -0.4267
-3 0 2 -15.5747 -0.9140
-3 0 3 9.9261 0.1903
-3 0 4 2.8177 0.7013
-3 0 5 -2.1973 0.0181
-3 0 6 -5.4343 -0.4755
-3 0 7 -9.7205 0.6195
-3 0 8 1.8221 -0.5363
-3 0 9 5.8967 0.0486
-3 0 10 1.4975 -0.0940
-3 0 11 -0.4160 0.1601
-3 0 12 -0.5914 -0.0294
-3 0 13 -3.0534 0.7472
-3 0 14 0.7853 0.6803
-3 0 15 1.3237 -0.2902
-3 1 1 -1.1024 -0.2655
-3 1 2 4.3103 -1.2575
-3 1 3 -6.3230 0.4203
-3 1 4 -5.5453 0.9451
-3 1 5 3.9597 -0.3169
-3 1 6 28.9031 -0.5416
-3 1 7 -0.7249 0.1263
-3 1 8 -16.8060 -0.4519
-3 1 9 -9.2428 0.2276
-3 1 10 0.4027 -0.3773
-3 1 11 5.4893 0.0855
-3 1 12 0.9062 -0.0289
-3 1 13 0.0584 -0.0429
-3 1 14 0.1038 -2.1683
-3 1 15 -0.9580 3.1241
-3 2 1 6.5569 -0.3353
-3 2 2 2.8838 -1.0641
-3 2 3 -2.4955 0.3397
-3 2 4 7.8597 0.8133
-3 2 5 -19.1006 -0.4686
-3 2 6 -15.8266 -0.2898
-3 2 7 17.9684 0.4249
-3 2 8 19.5830 -0.1694
-3 2 9 -8.0860 -0.0819
-3 2 10 -4.3334 -0.4737
-3 2 11 1.3872 0.0701
-3 2 12 1.0679 0.0544
-3 2 13 -2.3232 0.2611
-3 2 14 0.3860 -0.1212
-3 3 1 -3.1671 0.1498
-3 3 2 1.7138 -1.2605
-3 3 3 -0.7526 0.1007
-3 3 4 0.0270 0.4460
-3 3 5 9.9626 -0.5078
-3 3 6 -4.9210 0.1158
-3 3 7 -12.9039 0.7580
-3 3 8 5.9063 -0.2744
-3 3 9 4.0499 0.2026
-3 3 10 -2.3177 -0.2877
-3 3 11 -0.2430 -0.1794
-3 3 12 0.6937 0.4693
-3 3 13 1.1127 -1.3342
-3 3 14 -0.6394 1.7379
-3 4 1 0.9285 0.1758
-3 4 2 -1.1750 -1.1597
-3 4 3 7.4360 0.3642
-3 4 4 -0.0463 0.5669
-3 4 5 -1.9260 -0.2128
-3 4 6 3.2005 0.1320
-3 4 7 -5.4685 0.4616
-3 4 8 -0.1760 -0.4973
-3 4 9 1.4267 0.3370
-3 4 10 -1.0407 0.1646
-3 4 11 2.0213 1.4188
-3 4 12 -2.9463 -0.8549
-3 4 13 -1.0632 0.4056
-3 5 1 -6.2816 0.1330
-3 5 2 -6.8953 -0.7067
-3 5 3 0.7282 0.3728
-3 5 4 2.1617 0.3267
-3 5 5 0.4625 -0.5227
-3 5 6 3.3144 -0.2767
-3 5 7 3.6159 0.5291
-3 5 8 -1.9890 -0.0751
-3 5 9 -2.5977 0.1736
-3 5 10 0.5875 0.1376
-3 5 11 1.1350 0.2093
-3 5 12 1.1726 -3.3798
-3 6 1 9.1375 -0.0535
-3 6 2 -5.6047 -0.8008
-3 6 3 -1.4917 0.6793
-3 6 4 -4.0881 0.1695
-3 6 5 1.8081 -0.8220
-3 6 6 -3.6396 -0.4563
-3 6 7 -0.8884 0.7297
-3 6 8 3.0270 -0.8627
-3 6 9 -0.1972 -0.3582
-3 6 10 1.2854 0.1730
-3 6 11 0.2112 -0.5577
-3 6 12 0.6987 3.4937
-3 7 1 1.4483 -0.7802
-3 7 2 1.3875 -0.5755
-3 7 3 -0.0620 0.4223
-3 7 4 4.1973 -0.0428
-3 7 5 -4.3878 -0.3877
-3 7 6 0.4470 -0.1373
-3 7 7 0.1975 0.4511
-3 7 8 -2.6966 -0.3330
-3 7 9 -0.2097 -0.6230
-3 7 10 -1.6074 0.1822
-3 7 11 -0.7187 1.1359
-3 8 1 0.9249 -0.9682
-3 8 2 0.1680 -0.4382
-3 8 3 2.7544 0.3522
-3 8 4 -1.8785 0.8530
-3 8 5 2.4004 -0.1608
-3 8 6 -0.3132 -0.0672
-3 8 7 3.0379 0.7964
-3 8 8 1.7435 -0.3767
-3 8 9 -0.6212 0.9850
-3 8 10 -3.1451 -1.0950
-3 9 1 0.3863 -1.3790
-3 9 2 -2.2845 0.0994
-3 9 3 -0.0736 0.4746
-3 9 4 2.4193 1.1350
-3 9 5 1.0533 -0.2563
-3 9 6 -1.9840 -0.6448
-3 9 7 -1.1372 0.7734
-3 9 8 1.2111 0.1504
-3 9 9 1.9793 -0.7137
-3 10 1 -1.9758 -0.9581
-3 10 2 -1.0072 0.1581
-3 10 3 -1.8624 -0.4577
-3 10 4 -0.5524 0.5742
-3 10 5 -1.7305 -2.3378
-3 10 6 -0.1855 1.1300
-3 10 7 -0.8815 0.8021
-3 10 8 0.3619 -0.9861
-3 11 1 2.3762 -0.7901
-3 11 2 0.5510 -0.4210
-3 11 3 0.4727 -0.6737
-3 11 4 0.0759 -0.6650
-3 11 5 0.5289 -0.9543
-3 11 6 -0.0252 3.1611
-3 11 7 0.2293 -2.9317
-3 12 1 -1.1656 -1.6147
-3 12 2 -0.4020 0.4796
-3 12 3 1.3686 1.0666
-3 12 4 0.0439 1.0291
-3 12 5 0.7471 0.6677
-3 12 6 0.1777 -6.0375
-3 13 1 1.8038 -2.2346
-3 13 2 -1.7170 1.0550
-3 13 3 0.3365 3.3279
-3 13 4 0.1947 -0.8927
-3 14 1 0.9150 -4.0599
-3 14 2 -0.1356 1.2869
-3 14 3 -0.9489 -5.4861
-3 15 1 -1.6295 -4.8806
-2 -15 4 0.3866 -1.4104
-2 -15 5 -0.9268 1.1715
-2 -15 6 0.3019 1.3822
-2 -15 7 1.2128 0.7574
-2 -15 8 -0.4685 2.2509
-2 -15 9 -0.7328 2.7455
-2 -15 10 -3.4411 0.7721
-2 -15 11 0.4583 0.2276
-2 -15 12 1.3506 -0.8753
-2 -15 13 0.5053 -2.0827
-2 -14 2 0.6498 4.0160
-2 -14 3 -2.4539 1.0065
-2 -14 4 -0.7217 0.1482
-2 -14 5 1.8104 0.6404
-2 -14 6 -0.2413 1.1191
-2 -14 7 0.0402 -0.9986
-2 -14 8 1.5083 0.5901
-2 -14 9 3.8783 -0.0566
-2 -14 10 -0.1546 1.2822
-2 -14 11 -2.9700 0.3819
-2 -14 12 -3.3262 2.3574
-2 -14 13 4.7131 0.9123
-2 -14 14 3.8851 -0.2982
-2 -14 15 -0.9863 -0.2484
-2 -13 1 -0.6711 2.5752
-2 -13 2 2.9695 0.8174
-2 -13 3 0.2036 -0.1898
-2 -13 4 -0.4125 -1.5476
-2 -13 5 -2.5836 0.4164
-2 -13 6 -2.3451 0.0610
-2 -13 7 1.0228 -1.0839
-2 -13 8 -1.2004 -0.1720
-2 -13 9 -1.5367 0.2634
-2 -13 10 3.3492 -0.7081
-2 -13 11 0.2764 0.0069
-2 -13 12 -2.2196 0.8998
-2 -13 13 -4.0222 0.7168
-2 -13 14 -0.0733 0.0781
-2 -13 15 5.4041 -0.6037
-2 -13 16 0.8186 -0.8395
-2 -12 1 -1.9860 1.0674
-2 -12 2 -0.3343 -0.3469
-2 -12 3 1.6122 0.0118
-2 -12 4 0.5309 -0.6457
-2 -12 5 2.0832 0.5760
-2 -12 6 -0.7370 -0.0660
-2 -12 7 -2.4636 -0.6085
-2 -12 8 -1.1263 0.3447
-2 -12 9 0.9227 -0.7481
-2 -12 10 1.3760 -0.9095
-2 -12 11 0.7232 -0.8601
-2 -12 12 -0.4461 0.3158
-2 -12 13 1.5480 0.4074
-2 -12 14 -2.2541 0.5693
-2 -12 15 -2.1806 0.8580
-2 -12 16 3.9220 0.0602
-2 -11 1 -0.2789 0.8260
-2 -11 2 0.2795 -0.3062
-2 -11 3 -1.0695 0.2174
-2 -11 4 -0.8761 -0.8889
-2 -11 5 2.5604 0.2482
-2 -11 6 2.3426 -0.3685
-2 -11 7 2.7449 -0.2153
-2 -11 8 -1.7052 0.3399
-2 -11 9 -0.4348 -0.1076
-2 -11 10 0.0546 0.0686
-2 -11 11 1.5999 -0.4066
-2 -11 12 -0.0928 -0.7512
-2 -11 13 0.0346 0.3293
-2 -11 14 2.1793 0.1972
-2 -11 15 -0.9324 0.0451
-2 -11 16 -1.7399 -0.6210
-2 -11 17 0.5582 -0.6136
-2 -10 1 -1.6605 0.6811
-2 -10 2 0.3185 0.3265
-2 -10 3 1.5859 0.0983
-2 -10 4 -1.4210 -0.0888
-2 -10 5 -1.2774 0.8854
-2 -10 6 -2.5390 0.3761
-2 -10 7 -1.6646 0.0277
-2 -10 8 1.1912 0.6777
-2 -10 9 -0.8281 0.3237
-2 -10 10 0.0162 0.1664
-2 -10 11 -0.7223 -0.6303
-2 -10 12 -0.9774 -0.4435
-2 -10 13 -1.4067 0.0975
-2 -10 14 0.0073 0.6092
-2 -10 15 -0.8775 0.3159
-2 -10 16 0.2641 0.5105
-2 -10 17 -2.9585 0.3901
-2 -9 1 -0.3386 1.2301
-2 -9 2 -2.1357 0.2888
-2 -9 3 2.0794 -0.1253
-2 -9 4 -0.3456 -0.4884
-2 -9 5 1.5962 0.5934
-2 -9 6 3.0406 -0.5338
-2 -9 7 -1.7176 -0.3986
-2 -9 8 1.2187 0.3556
-2 -9 9 -0.2247 0.4027
-2 -9 10 -0.2314 0.6915
-2 -9 11 -0.2368 -0.0989
-2 -9 12 -0.1813 -0.6604
-2 -9 13 0.5231 -0.1831
-2 -9 14 1.1052 -0.2849
-2 -9 15 1.0472 0.1261
-2 -9 16 0.6850 0.4578
-2 -9 17 1.8497 0.7449
-2 -8 1 1.3378 0.7479
-2 -8 2 0.1339 0.2536
-2 -8 3 -4.2619 -0.5555
-2 -8 4 -1.7188 -0.3959
-2 -8 5 0.9089 0.6671
-2 -8 6 -0.1387 -0.3827
-2 -8 7 -0.0070 -0.4973
-2 -8 8 -1.5285 0.0496
-2 -8 9 -0.2625 0.2245
-2 -8 10 2.7865 0.0672
-2 -8 11 0.2381 0.1081
-2 -8 12 0.5161 -0.2535
-2 -8 13 0.5945 -0.0812
-2 -8 14 0.4590 -0.3078
-2 -8 15 -1.5295 -0.3688
-2 -8 16 0.3837 -0.5671
-2 -8 17 -1.4446 0.3734
-2 -7 1 0.3811 1.1341
-2 -7 2 1.6064 0.2374
-2 -7 3 1.5526 -0.4033
-2 -7 4 -2.1525 -0.2422
-2 -7 5 -0.1043 0.5797
-2 -7 6 0.5205 -0.1468
-2 -7 7 -1.6726 -0.5165
-2 -7 8 0.5016 -0.1589
-2 -7 9 -0.4205 -0.0370
-2 -7 10 0.5980 0.2453
-2 -7 11 -2.6722 0.3729
-2 -7 12 -1.2972 0.2770
-2 -7 13 -1.8295 -0.0064
-2 -7 14 0.8565 -0.2287
-2 -7 15 0.2998 0.0734
-2 -7 16 -0.6403 -0.5854
-2 -7 17 0.2848 0.7637
-2 -6 1 1.9141 1.1994
-2 -6 2 2.8085 0.0697
-2 -6 3 1.2530 -0.2503
-2 -6 4 4.0102 -0.3082
-2 -6 5 0.1543 0.6483
-2 -6 6 0.3359 -0.2549
-2 -6 7 2.5116 -0.4425
-2 -6 8 -1.5026 0.2406
-2 -6 9 0.8830 -0.1217
-2 -6 10 3.4239 0.3161
-2 -6 11 -2.0577 0.0788
-2 -6 12 0.7598 0.1649
-2 -6 13 -2.0261 -0.2512
-2 -6 14 3.6121 0.6707
-2 -6 15 -2.1157 0.5695
-2 -6 16 3.1522 -0.6575
-2 -6 17 1.2430 0.9597
-2 -5 1 -7.5684 1.1358
-2 -5 2 3.1978 -0.4632
-2 -5 3 -4.8445 0.5154
-2 -5 4 -1.9017 -0.0229
-2 -5 5 0.9407 0.5944
-2 -5 6 1.6230 0.1743
-2 -5 7 1.0854 -0.0757
-2 -5 8 -4.9638 -0.1583
-2 -5 9 0.2477 -0.3135
-2 -5 10 5.4632 -0.0219
-2 -5 11 -0.2406 -0.2929
-2 -5 12 1.7448 0.0338
-2 -5 13 0.6877 -0.0416
-2 -5 14 -1.0895 0.4832
-2 -5 15 -2.6493 0.0416
-2 -5 16 -0.1473 -1.0370
-2 -5 17 -1.1113 0.8500
-2 -4 1 3.3831 1.4406
-2 -4 2 -2.8299 -0.6992
-2 -4 3 0.5067 0.5248
-2 -4 4 -7.8801 -1.0136
-2 -4 5 4.4465 0.8008
-2 -4 6 -0.0395 -0.1879
-2 -4 7 -5.2608 -0.1421
-2 -4 8 0.5264 -0.1259
-2 -4 9 -2.5894 0.0679
-2 -4 10 -1.2292 0.2262
-2 -4 11 0.2027 -0.0580
-2 -4 12 -1.1158 -0.0157
-2 -4 13 -0.5532 -0.7075
-2 -4 14 -0.0412 0.2270
-2 -4 15 1.5745 -0.0213
-2 -4 16 -0.8488 -0.9710
-2 -4 17 -2.2279 1.6875
-2 -3 1 1.9567 1.8239
-2 -3 2 0.3004 -1.1579
-2 -3 3 3.9169 0.0971
-2 -3 4 -1.9618 -0.8797
-2 -3 5 -5.4573 1.2058
-2 -3 6 4.0239 0.0782
-2 -3 7 6.3453 -0.2851
-2 -3 8 -5.5640 -0.0970
-2 -3 9 -0.9473 -0.1890
-2 -3 10 -0.7163 0.0625
-2 -3 11 1.2851 -0.0270
-2 -3 12 -0.5333 -0.0477
-2 -3 13 0.3860 -0.2543
-2 -3 14 0.3391 0.9645
-2 -3 15 -0.5064 -0.2133
-2 -3 16 0.0146 -0.3468
-2 -3 17 1.9539 2.8801
-2 -2 1 -10.0330 2.4260
-2 -2 2 23.2976 -1.2724
-2 -2 3 -7.2049 0.0036
-2 -2 4 7.7858 -0.8947
-2 -2 5 4.7304 0.9823
-2 -2 6 -2.8401 -0.1487
-2 -2 7 3.2216 -0.2354
-2 -2 8 4.3009 0.3090
-2 -2 9 -0.3401 0.0432
-2 -2 10 -0.0486 0.1729
-2 -2 11 -0.4090 -0.0037
-2 -2 12 -0.8443 -0.0782
-2 -2 13 1.7942 -0.4558
-2 -2 14 -0.4253 0.6894
-2 -2 15 2.9822 -1.0269
-2 -2 16 -1.3191 0.4639
-2 -1 1 -10.5294 3.2250
-2 -1 2 -19.4618 -0.7871
-2 -1 3 8.0085 0.4396
-2 -1 4 -10.4333 -1.2736
-2 -1 5 -3.9616 1.2577
-2 -1 6 4.5737 -0.2462
-2 -1 7 1.6513 -0.1786
-2 -1 8 -5.2708 0.3779
-2 -1 9 2.4499 0.0574
-2 -1 10 0.3355 -0.2778
-2 -1 11 1.3884 0.2542
-2 -1 12 -0.7991 -0.0696
-2 -1 13 -0.5703 0.1596
-2 -1 14 0.0987 0.0083
-2 -1 15 -2.9117 -1.5410
-2 -1 16 -0.2932 3.4042
-2 0 1 12.6918 3.5267
-2 0 2 15.0879 -0.6191
-2 0 3 -6.8820 0.0724
-2 0 4 -4.3727 -1.1374
-2 0 5 -0.8881 1.1655
-2 0 6 -4.3433 -0.5435
-2 0 7 -0.4733 -0.2204
-2 0 8 -0.0099 0.4999
-2 0 9 3.2436 -0.1687
-2 0 10 -1.2476 -0.1164
-2 0 11 -1.5132 0.1601
-2 0 12 0.9209 0.0924
-2 0 13 -1.0171 0.2036
-2 0 14 0.8648 0.1685
-2 0 15 0.1509 0.6613
-2 1 1 -42.4293 2.5045
-2 1 2 9.8044 -0.5928
-2 1 3 12.8613 -0.2881
-2 1 4 7.7296 -0.9596
-2 1 5 -1.7059 1.0212
-2 1 6 -0.9838 -0.5857
-2 1 7 0.8837 -0.4237
-2 1 8 -2.6807 0.2185
-2 1 9 -1.0758 0.0272
-2 1 10 -1.0104 0.0925
-2 1 11 -0.0525 0.0205
-2 1 12 1.1552 -0.3388
-2 1 13 0.4974 0.0691
-2 1 14 0.7258 -1.3226
-2 1 15 0.1483 3.3778
-2 2 1 14.0171 3.4207
-2 2 2 -12.0584 -0.0454
-2 2 3 -8.5445 -0.0701
-2 2 4 -1.7948 -0.4443
-2 2 5 6.3911 1.1229
-2 2 6 1.8265 -0.4279
-2 2 7 -0.3517 -0.4982
-2 2 8 0.1424 0.0359
-2 2 9 2.7833 -0.0869
-2 2 10 0.7613 0.2272
-2 2 11 -1.2605 0.0735
-2 2 12 -0.0182 -0.2002
-2 2 13 -1.1457 1.1959
-2 2 14 -1.7819 -0.6749
-2 3 1 7.9448 3.5794
-2 3 2 -4.4659 -0.6139
-2 3 3 -2.0483 -0.1047
-2 3 4 1.2773 -0.6982
-2 3 5 -2.9224 1.3918
-2 3 6 -1.2589 -0.2355
-2 3 7 2.2369 -0.0387
-2 3 8 -2.8917 -0.1672
-2 3 9 0.3130 -0.2138
-2 3 10 -0.0132 0.3287
-2 3 11 0.8593 -0.8809
-2 3 12 0.8099 -0.1586
-2 3 13 1.6816 -0.0179
-2 3 14 0.4955 2.7763
-2 4 1 3.5631 3.8906
-2 4 2 12.6900 -0.7867
-2 4 3 -1.1860 -0.2782
-2 4 4 -5.7976 -1.0064
-2 4 5 1.5083 0.8191
-2 4 6 1.4923 0.1812
-2 4 7 -1.0836 0.1839
-2 4 8 0.5372 0.0103
-2 4 9 -0.5937 0.2170
-2 4 10 -0.9932 0.4445
-2 4 11 -0.0322 -0.7602
-2 4 12 -3.0290 0.1940
-2 4 13 0.9446 0.7087
-2 5 1 -3.2315 3.6424
-2 5 2 4.1866 -1.1013
-2 5 3 -1.4777 0.0883
-2 5 4 2.4454 -1.1155
-2 5 5 0.8762 1.3740
-2 5 6 -0.0535 -0.3682
-2 5 7 0.5203 -0.3970
-2 5 8 1.2265 -0.3292
-2 5 9 0.1348 0.4116
-2 5 10 1.1776 -0.1483
-2 5 11 -0.8432 1.0541
-2 5 12 -0.5778 -1.0314
-2 6 1 -2.7554 3.7955
-2 6 2 3.4806 -1.1905
-2 6 3 -1.2133 0.3269
-2 6 4 0.2313 -0.7480
-2 6 5 -2.2159 0.8747
-2 6 6 -0.8272 -0.7413
-2 6 7 -1.3659 0.1165
-2 6 8 0.2623 0.6140
-2 6 9 1.1164 0.2255
-2 6 10 1.2724 -0.3199
-2 6 11 1.4656 -1.3281
-2 6 12 2.3986 4.0924
-2 7 1 -1.9088 3.9090
-2 7 2 -1.7833 -1.0393
-2 7 3 -0.3218 0.4945
-2 7 4 -0.8669 -0.9507
-2 7 5 1.7726 0.5600
-2 7 6 0.9291 -0.5988
-2 7 7 -0.7143 -0.2709
-2 7 8 -2.1754 0.4133
-2 7 9 0.6591 -0.4065
-2 7 10 -3.7111 -0.2127
-2 7 11 -1.5280 1.1071
-2 8 1 -0.7501 3.8047
-2 8 2 0.4633 -1.0599
-2 8 3 1.2802 0.2037
-2 8 4 -0.3284 -0.6493
-2 8 5 0.8791 1.1301
-2 8 6 0.8897 -0.0887
-2 8 7 -1.4334 -0.5568
-2 8 8 -1.1871 -0.1232
-2 8 9 2.7600 0.0477
-2 8 10 1.5438 0.8560
-2 9 1 -0.0206 4.0539
-2 9 2 2.5540 -1.1947
-2 9 3 0.3029 0.0413
-2 9 4 -1.5226 -0.2879
-2 9 5 0.2162 1.4294
-2 9 6 0.3274 -0.0797
-2 9 7 3.1033 -0.4215
-2 9 8 -0.4402 -0.8606
-2 9 9 -2.4638 0.8467
-2 10 1 0.5033 3.3844
-2 10 2 -1.8902 -1.3222
-2 10 3 -0.6184 0.0446
-2 10 4 -0.7816 -0.4951
-2 10 5 0.0467 0.2698
-2 10 6 0.7104 1.0671
-2 10 7 -0.6937 -0.9388
-2 10 8 -0.4103 0.5792
-2 11 1 0.2705 3.8444
-2 11 2 0.9360 -0.9758
-2 11 3 -0.1311 -0.0168
-2 11 4 1.1099 -1.6061
-2 11 5 -1.3506 -0.7240
-2 11 6 -1.1851 0.6242
-2 11 7 2.3712 3.7378
-2 12 1 -1.9538 3.2069
-2 12 2 0.8703 -1.2404
-2 12 3 -0.6982 1.0596
-2 12 4 0.8369 -0.2922
-2 12 5 -0.9827 0.4840
-2 13 1 0.4278 1.8658
-2 13 2 0.0222 -2.0692
-2 13 3 -0.0962 2.3352
-2 13 4 0.5304 1.4750
-2 14 1 -0.0449 1.5351
-2 14 2 -0.2585 1.1236
-2 15 1 -0.9344 1.3531
-1 -16 5 2.6849 -5.1797
-1 -16 6 2.7361 -3.2221
-1 -16 7 -1.3929 -2.2434
-1 -16 8 0.4879 -1.7150
-1 -16 9 1.3721 -1.4483
-1 -16 10 0.7592 -1.5757
-1 -16 11 3.7177 -2.0403
-1 -16 12 1.5637 -4.3720
-1 -15 2 -0.8640 -2.4722
-1 -15 3 0.8024 -2.8916
-1 -15 4 0.0891 0.0567
-1 -15 5 -1.2408 1.5710
-1 -15 6 0.0159 1.5341
-1 -15 7 -0.1463 -0.1010
-1 -15 8 0.3483 -0.0936
-1 -15 9 -3.8279 -0.0649
-1 -15 10 -3.2234 0.6658
-1 -15 11 1.1933 1.2498
-1 -15 12 -1.2049 -2.5656
-1 -15 13 0.2301 -3.3883
-1 -15 14 -2.9303 -3.4166
-1 -14 1 -0.8632 -3.7427
-1 -14 2 -0.2804 1.6442
-1 -14 3 0.7548 0.6652
-1 -14 4 -0.6284 0.1946
-1 -14 5 -0.4996 0.4994
-1 -14 6 4.1626 0.4254
-1 -14 7 -2.5291 -0.0620
-1 -14 8 1.9094 0.4977
-1 -14 9 0.1011 -0.1353
-1 -14 10 0.5030 0.3907
-1 -14 11 1.2654 0.3973
-1 -14 12 2.1025 1.5552
-1 -14 13 0.2293 0.6903
-1 -14 14 -1.3428 -3.2316
-1 -14 15 -0.5256 -3.9369
-1 -13 1 1.1326 -1.7673
-1 -13 2 1.6423 0.5545
-1 -13 3 -2.3223 -0.0653
-1 -13 4 0.4063 0.1151
-1 -13 5 -2.9091 -0.3167
-1 -13 6 0.7382 0.5293
-1 -13 7 -0.3643 0.7943
-1 -13 8 3.0668 0.5402
-1 -13 9 -1.6896 0.1390
-1 -13 10 -1.5105 0.7344
-1 -13 11 -2.7991 0.4337
-1 -13 12 0.7116 0.7733
-1 -13 13 3.1806 -0.0671
-1 -13 14 -1.8660 1.7031
-1 -13 15 -0.5518 -2.3706
-1 -13 16 2.6702 -3.7409
-1 -12 1 -0.9105 -2.5182
-1 -12 2 -1.0824 0.1797
-1 -12 3 2.4635 0.4230
-1 -12 4 1.8317 0.0299
-1 -12 5 -0.9102 -0.8405
-1 -12 6 -1.4170 -0.0626
-1 -12 7 -0.0444 -0.5747
-1 -12 8 0.1648 -0.2155
-1 -12 9 0.8231 -0.3597
-1 -12 10 -0.0837 -0.1386
-1 -12 11 0.6604 -0.3702
-1 -12 12 2.6554 0.6809
-1 -12 13 -1.6412 0.9560
-1 -12 14 0.9015 0.4562
-1 -12 15 0.1874 1.3658
-1 -12 16 0.3513 -3.5302
-1 -11 1 2.1917 -2.6423
-1 -11 2 -0.8030 0.6493
-1 -11 3 -1.4831 -0.2666
-1 -11 4 0.4868 -0.0594
-1 -11 5 0.4219 -0.9376
-1 -11 6 0.7506 -0.1929
-1 -11 7 1.3050 -0.3962
-1 -11 8 -0.6511 -0.6383
-1 -11 9 1.3388 -0.6116
-1 -11 10 -0.7713 0.0254
-1 -11 11 -3.1060 -0.3266
-1 -11 12 1.3214 -0.6735
-1 -11 13 1.1579 0.3415
-1 -11 14 -0.6382 0.4657
-1 -11 15 -0.5244 1.4674
-1 -11 16 0.5862 -1.4811
-1 -11 17 1.1513 -3.7091
-1 -10 1 1.3303 -2.4882
-1 -10 2 0.6629 0.8288
-1 -10 3 -0.5287 -0.0601
-1 -10 4 0.9480 0.6365
-1 -10 5 -2.8616 0.2114
-1 -10 6 -0.5894 0.7905
-1 -10 7 -0.5657 0.0627
-1 -10 8 1.1210 0.0279
-1 -10 9 -2.4520 0.1677
-1 -10 10 0.7018 0.2055
-1 -10 11 0.7343 -0.6189
-1 -10 12 -2.0550 -0.1153
-1 -10 13 -1.0494 -0.0806
-1 -10 14 -0.1711 -0.2303
-1 -10 15 -1.2383 0.3167
-1 -10 16 -0.1676 2.1058
-1 -10 17 3.9416 -2.2932
-1 -9 1 -1.4785 -1.9397
-1 -9 2 -0.6821 1.0563
-1 -9 3 0.1216 -0.4887
-1 -9 4 2.8018 0.3626
-1 -9 5 0.2350 0.0493
-1 -9 6 0.9500 0.8944
-1 -9 7 0.8924 -0.0410
-1 -9 8 -1.5005 -0.0716
-1 -9 9 5.2783 0.1234
-1 -9 10 -2.4951 0.0203
-1 -9 11 -0.8541 -0.5331
-1 -9 12 2.5210 0.2217
-1 -9 13 0.0378 -0.1772
-1 -9 14 -0.7151 -0.1605
-1 -9 15 0.4975 0.4292
-1 -9 16 -0.8529 1.6364
-1 -9 17 2.1369 -1.9543
-1 -8 1 2.4562 -2.2292
-1 -8 2 -3.1256 1.1663
-1 -8 3 2.3148 -1.0412
-1 -8 4 -2.7706 0.1398
-1 -8 5 -2.1557 -0.3040
-1 -8 6 -2.8235 0.3749
-1 -8 7 1.1546 -0.5292
-1 -8 8 -1.2516 0.7116
-1 -8 9 -1.2756 0.3744
-1 -8 10 2.1196 -0.1646
-1 -8 11 2.1972 0.0726
-1 -8 12 0.4288 -0.0094
-1 -8 13 0.0997 -0.5943
-1 -8 14 -0.3528 -0.6467
-1 -8 15 -0.7468 0.1258
-1 -8 16 -3.1479 0.9292
-1 -8 17 -0.0403 -0.9074
-1 -7 1 6.6162 -2.0207
-1 -7 2 -6.0263 1.2006
-1 -7 3 3.5605 -0.7192
-1 -7 4 0.4646 0.0803
-1 -7 5 0.0977 -0.7298
-1 -7 6 1.0676 0.1856
-1 -7 7 4.2669 -0.2707
-1 -7 8 -4.7767 0.4289
-1 -7 9 -2.1358 -0.1078
-1 -7 10 -4.7173 0.4085
-1 -7 11 1.4087 0.3161
-1 -7 12 -0.4908 0.0476
-1 -7 13 1.3913 -0.3810
-1 -7 14 -0.1466 -0.3479
-1 -7 15 0.8476 -0.1732
-1 -7 16 -0.8893 0.8729
-1 -7 17 0.5342 -1.0958
-1 -6 1 -1.4970 -1.8582
-1 -6 2 3.9792 1.4667
-1 -6 3 2.9745 -0.7553
-1 -6 4 -0.1162 0.1558
-1 -6 5 -0.2452 -0.4751
-1 -6 6 -1.6098 0.2788
-1 -6 7 3.8958 -0.5541
-1 -6 8 0.8672 -0.2629
-1 -6 9 4.6643 -0.3170
-1 -6 10 -2.4226 0.3950
-1 -6 11 0.8195 -0.0213
-1 -6 12 -0.0808 0.9160
-1 -6 13 0.6447 -0.4159
-1 -6 14 -0.3042 -0.0023
-1 -6 15 2.0534 -0.1767
-1 -6 16 1.4865 0.9129
-1 -6 17 3.0483 -1.4300
-1 -5 1 -9.7590 -1.3497
-1 -5 2 -2.9858 1.4632
-1 -5 3 1.9663 -0.6863
-1 -5 4 4.4344 0.6865
-1 -5 5 -6.1270 -0.1954
-1 -5 6 0.9856 0.7143
-1 -5 7 5.4650 -0.4170
-1 -5 8 4.9138 -0.1459
-1 -5 9 -3.6461 -0.3617
-1 -5 10 -2.8584 0.1689
-1 -5 11 0.9072 0.2179
-1 -5 12 -2.1036 0.4272
-1 -5 13 2.7182 -0.2839
-1 -5 14 -1.3295 -0.0382
-1 -5 15 -0.5487 -0.7944
-1 -5 16 -2.6698 1.0331
-1 -5 17 0.3470 -2.5142
-1 -4 1 -4.8592 -1.1489
-1 -4 2 -0.3379 1.3543
-1 -4 3 -2.2164 -0.6285
-1 -4 4 2.9431 0.5675
-1 -4 5 -8.8456 -0.4885
-1 -4 6 -8.3187 0.7802
-1 -4 7 -6.0664 -0.1453
-1 -4 8 2.7456 -0.1498
-1 -4 9 2.1051 -0.4531
-1 -4 10 -0.6149 -0.2126
-1 -4 11 1.1649 -0.3229
-1 -4 12 1.2856 0.0603
-1 -4 13 -3.3169 0.5241
-1 -4 14 -1.3842 -0.3413
-1 -4 15 0.6091 -0.0496
-1 -4 16 -0.5661 2.3855
-1 -4 17 0.3653 -2.7591
-1 -3 1 -4.8892 -0.9316
-1 -3 2 11.0497 1.6320
-1 -3 3 -19.9264 -1.2332
-1 -3 4 14.8545 0.2229
-1 -3 5 6.8305 -0.9559
-1 -3 6 -2.6783 1.0396
-1 -3 7 -1.0461 0.3544
-1 -3 8 4.5452 0.2121
-1 -3 9 -2.3152 -0.1495
-1 -3 10 -1.2559 -0.2471
-1 -3 11 -1.8424 -0.2451
-1 -3 12 1.8867 0.5364
-1 -3 13 1.3688 0.4271
-1 -3 14 0.2621 -0.8123
-1 -3 15 2.3962 -0.0120
-1 -3 16 0.1281 0.8861
-1 -2 1 -17.8153 -0.8654
-1 -2 2 5.9342 0.5258
-1 -2 3 29.7890 -0.4214
-1 -2 4 -3.2984 0.0284
-1 -2 5 -9.9621 -1.1536
-1 -2 6 5.6734 0.8812
-1 -2 7 -0.3087 -0.1729
-1 -2 8 0.1652 0.4982
-1 -2 9 1.8049 -0.2511
-1 -2 10 0.1688 -0.0386
-1 -2 11 -0.0478 -0.1559
-1 -2 12 -0.7451 0.3761
-1 -2 13 1.0049 0.1587
-1 -2 14 0.3799 -1.0150
-1 -2 15 -3.2636 0.1925
-1 -2 16 0.8457 -2.2627
-1 -1 1 39.3463 -2.0779
-1 -1 2 -67.1782 1.3757
-1 -1 3 -7.9874 0.9350
-1 -1 4 22.6779 0.1347
-1 -1 5 9.1509 -1.3187
-1 -1 6 -16.6941 0.2258
-1 -1 7 1.4602 -0.0264
-1 -1 8 0.4569 0.5118
-1 -1 9 2.2169 0.0571
-1 -1 10 0.7043 -0.2896
-1 -1 11 -3.0419 -0.4827
-1 -1 12 1.1658 0.3216
-1 -1 13 -0.7721 -0.0904
-1 -1 14 0.1760 -0.3549
-1 -1 15 -1.3603 3.0376
-1 -1 16 0.9445 -2.9126
-1 0 1 22.0390 -4.4834
-1 0 2 36.7187 2.3833
-1 0 3 -27.2201 0.8987
-1 0 4 -20.9020 0.3217
-1 0 5 12.3659 -1.0919
-1 0 6 7.3044 0.0870
-1 0 7 -6.3231 -0.3066
-1 0 8 0.3161 0.3373
-1 0 9 -1.9636 0.0705
-1 0 10 3.0515 -0.1028
-1 0 11 0.2508 0.0870
-1 0 12 -2.2137 0.4206
-1 0 13 1.0747 -1.2086
-1 0 14 1.4650 -0.0465
-1 0 15 0.6614 -0.2752
-1 1 1 4.9815 -5.2929
-1 1 2 -4.1834 0.8527
-1 1 3 14.3813 0.2466
-1 1 4 4.0548 0.3694
-1 1 5 -5.2886 -0.7103
-1 1 6 2.8253 0.3910
-1 1 7 -1.3887 -0.0317
-1 1 8 0.3934 0.2203
-1 1 9 -0.6686 -0.3503
-1 1 10 -0.3181 -0.2442
-1 1 11 0.1140 0.3375
-1 1 12 3.1410 0.8219
-1 1 13 -1.1301 -0.2084
-1 1 14 -2.4715 1.7508
-1 1 15 4.1045 -2.1417
-1 2 1 -3.6412 -5.4308
-1 2 2 3.2956 1.2719
-1 2 3 4.1544 0.3335
-1 2 4 -0.7698 0.5198
-1 2 5 -5.9115 -0.7735
-1 2 6 1.6721 0.6332
-1 2 7 2.3315 -0.0686
-1 2 8 -0.9992 0.1484
-1 2 9 -0.8911 -0.0877
-1 2 10 0.6526 0.3904
-1 2 11 -1.1825 0.0258
-1 2 12 -1.6913 -0.9616
-1 2 13 0.1406 0.1645
-1 2 14 0.9051 -1.2848
-1 3 1 -17.2424 -5.1052
-1 3 2 -4.7484 1.3503
-1 3 3 1.1294 0.5949
-1 3 4 -6.8358 0.1845
-1 3 5 7.4660 -0.6947
-1 3 6 -1.1110 0.2448
-1 3 7 1.6698 -0.6419
-1 3 8 -0.6768 0.2755
-1 3 9 0.0323 0.1616
-1 3 10 -0.9201 0.1850
-1 3 11 2.0689 -0.9393
-1 3 12 0.3929 0.6501
-1 3 13 1.5183 1.0623
-1 4 1 -6.1952 -5.4001
-1 4 2 -1.2800 1.2442
-1 4 3 12.2595 0.2606
-1 4 4 0.2843 0.2690
-1 4 5 -6.6751 -0.3736
-1 4 6 -3.2765 0.0166
-1 4 7 1.3372 -0.3437
-1 4 8 -0.3792 0.2386
-1 4 9 2.4510 -0.1936
-1 4 10 -1.0519 -0.6393
-1 4 11 -1.5008 0.1660
-1 4 12 -2.0972 1.4446
-1 4 13 0.6052 -1.9485
-1 5 1 -4.0068 -4.7649
-1 5 2 -7.7862 0.8172
-1 5 3 -6.8603 -0.0880
-1 5 4 11.0757 0.0879
-1 5 5 3.1091 -0.1538
-1 5 6 -0.4429 0.2982
-1 5 7 1.3518 -0.2318
-1 5 8 -1.3715 0.8956
-1 5 9 -2.1220 -0.8658
-1 5 10 3.5039 -0.0669
-1 5 11 -3.2313 -0.2026
-1 5 12 3.1694 -1.2544
-1 6 1 14.0294 -3.9691
-1 6 2 -0.7051 1.2405
-1 6 3 -6.8378 -0.1489
-1 6 4 -4.6259 0.5345
-1 6 5 0.0861 0.0003
-1 6 6 1.5905 -0.0735
-1 6 7 -1.5661 0.0630
-1 6 8 2.2576 0.3585
-1 6 9 -1.6732 0.2874
-1 6 10 4.6049 0.7892
-1 6 11 2.6543 0.1223
-1 7 1 -4.5146 -3.1847
-1 7 2 3.6672 1.0267
-1 7 3 4.4485 -0.0160
-1 7 4 0.7528 0.3339
-1 7 5 -3.9743 -0.2979
-1 7 6 0.3319 -0.0952
-1 7 7 -0.4039 -0.2577
-1 7 8 2.7181 0.2799
-1 7 9 -3.6520 0.0568
-1 7 10 -6.2315 0.3659
-1 8 1 -2.9307 -2.7677
-1 8 2 1.0101 1.0709
-1 8 3 -0.9921 0.1078
-1 8 4 0.5132 -0.4030
-1 8 5 0.8433 -0.3658
-1 8 6 -0.3404 0.4410
-1 8 7 -1.8368 -0.5151
-1 8 8 -1.5482 -0.6720
-1 8 9 4.5897 0.1422
-1 9 1 1.5005 -2.2553
-1 9 2 -1.5775 0.7844
-1 9 3 1.6351 -0.5860
-1 9 4 -0.0628 -0.7202
-1 9 5 2.7626 0.6923
-1 9 6 -0.0725 0.6801
-1 9 7 0.7515 -0.8217
-1 9 8 -0.4506 0.3285
-1 10 1 3.1818 -2.2216
-1 10 2 -1.4668 0.3843
-1 10 3 -1.0790 0.1530
-1 10 4 0.4333 0.7621
-1 10 5 -2.8996 0.0045
-1 10 6 2.8313 -0.6837
-1 10 7 -0.2337 -0.2077
-1 11 1 1.4699 -1.7153
-1 11 2 -0.5841 0.3273
-1 11 3 0.2663 1.6181
-1 11 4 -0.5346 -0.0540
-1 11 5 1.4228 -1.0569
-1 11 6 -2.3286 1.4899
-1 12 1 0.0865 -0.8250
-1 12 2 -0.2594 -0.8400
-1 12 3 0.0029 -0.9811
-1 12 4 -2.2882 -1.6395
-1 12 5 0.9277 3.6624
-1 13 1 0.6229 0.6736
-1 13 2 -0.4790 -1.2428
-1 13 3 2.8807 1.1125
-1 14 1 -2.7561 2.5109
-1 14 2 2.7137 3.5764
0 -17 8 -2.0221 2.3715
0 -17 9 -2.2993 3.0737
0 -16 4 2.4581 -0.7969
0 -16 5 -3.1528 -0.3114
0 -16 6 0.1207 -1.9507
0 -16 7 4.8985 -1.4351
0 -16 8 -2.1142 -2.1693
0 -16 9 2.6654 -2.1902
0 -16 10 2.4999 -1.5558
0 -16 11 2.1365 0.2066
0 -16 12 -1.8043 1.6663
0 -16 13 1.4403 0.9816
0 -15 1 1.0388 -0.4003
0 -15 2 -0.6134 -0.8620
0 -15 3 0.4550 0.7762
0 -15 4 -0.0686 -0.7893
0 -15 5 1.5452 0.5760
0 -15 6 -6.2881 -1.2827
0 -15 7 1.3508 0.1854
0 -15 8 -0.4524 -0.7846
0 -15 9 1.1795 -0.4664
0 -15 10 -4.3888 -0.6541
0 -15 11 -6.1732 -2.5194
0 -15 12 0.3776 -0.1981
0 -15 13 -0.7479 0.2215
0 -15 14 3.0160 2.3839
0 -14 1 -1.6444 0.7688
0 -14 2 -0.6631 -0.4023
0 -14 3 -1.0458 -1.4626
0 -14 4 0.1462 0.7495
0 -14 5 0.4604 0.5102
0 -14 6 1.5870 0.5263
0 -14 7 -1.2596 1.7428
0 -14 8 -2.4417 0.7777
0 -14 9 2.5470 0.8186
0 -14 10 7.3333 -0.9682
0 -14 11 0.8688 -1.0950
0 -14 12 -2.7619 0.1310
0 -14 13 -2.7644 -3.1243
0 -14 14 2.5667 0.6215
0 -14 15 2.3519 0.4123
0 -13 1 0.9514 2.4717
0 -13 2 1.2824 0.1786
0 -13 3 0.8066 0.2819
0 -13 4 -1.2493 1.0722
0 -13 5 1.0996 -0.4182
0 -13 6 1.7324 -0.0483
0 -13 7 -2.2109 0.7388
0 -13 8 -0.2872 0.2133
0 -13 9 -0.4563 1.4053
0 -13 10 -1.5369 1.1150
0 -13 11 2.2104 1.6907
0 -13 12 2.3694 -0.6163
0 -13 13 -3.6059 -1.5966
0 -13 14 -0.9455 -0.6899
0 -13 15 0.5141 -0.2631
0 -13 16 3.9290 1.2713
0 -12 1 -0.0404 2.3205
0 -12 2 -0.4705 -0.8279
0 -12 3 0.0029 -0.0591
0 -12 4 1.1409 -0.0303
0 -12 5 1.0066 -1.0379
0 -12 6 1.1019 -0.6521
0 -12 7 0.4153 0.2194
0 -12 8 -3.6714 -0.4251
0 -12 9 -0.3104 -0.0398
0 -12 10 0.4641 0.2448
0 -12 11 1.3855 1.4472
0 -12 12 0.6845 0.2188
0 -12 13 2.8773 -0.1423
0 -12 14 2.6470 0.7591
0 -12 15 -2.5259 -1.9005
0 -12 16 -3.8879 1.0160
0 -12 17 -1.8084 0.8724
0 -11 1 -1.0136 1.0831
0 -11 2 0.5934 -1.0939
0 -11 3 -0.4303 0.3454
0 -11 4 -2.3055 0.3100
0 -11 5 0.2775 -0.6678
0 -11 6 -0.6630 -0.2972
0 -11 7 3.1544 -0.3189
0 -11 8 3.3339 -1.3410
0 -11 9 -3.9089 -1.0917
0 -11 10 -0.3600 -0.2442
0 -11 11 -2.0546 0.6980
0 -11 12 -2.1659 0.3814
0 -11 13 -0.4212 1.4313
0 -11 14 1.2692 -1.0418
0 -11 15 3.5835 -1.6092
0 -11 16 -1.9049 0.5728
0 -11 17 -1.6860 0.7619
0 -10 1 -1.1591 1.1975
0 -10 2 1.0512 -0.7918
0 -10 3 0.0203 0.5379
0 -10 4 -3.3219 0.3776
0 -10 5 1.8936 -0.3064
0 -10 6 -0.9168 -0.1423
0 -10 7 -2.2467 0.7746
0 -10 8 1.7686 0.1741
0 -10 9 1.5215 -0.4943
0 -10 10 -0.1520 -0.6222
0 -10 11 1.9165 -0.2755
0 -10 12 -4.6694 -0.1217
0 -10 13 0.8933 0.7498
0 -10 14 -2.0791 -0.3192
0 -10 15 4.3124 0.3369
0 -10 16 1.3612 -1.6155
0 -10 17 -0.9052 1.1069
0 -9 1 -2.5550 0.9207
0 -9 2 3.1439 -0.8133
0 -9 3 -0.9576 0.9354
0 -9 4 1.1180 0.6735
0 -9 5 3.0336 -0.1964
0 -9 6 -4.4929 0.1364
0 -9 7 2.9345 1.0947
0 -9 8 -0.1794 0.0930
0 -9 9 0.4657 -0.1283
0 -9 10 0.9992 -0.7008
0 -9 11 1.8226 -0.3896
0 -9 12 -1.1826 0.2249
0 -9 13 0.5181 0.5174
0 -9 14 -2.1279 0.8265
0 -9 15 -0.4989 -0.4732
0 -9 16 1.8774 -0.9928
0 -9 17 -2.9914 0.7462
0 -8 1 -2.7205 -0.2490
0 -8 2 3.1872 -1.4268
0 -8 3 -2.7317 0.9065
0 -8 4 -1.9441 0.4368
0 -8 5 2.6104 -0.3246
0 -8 6 -1.1784 -0.3403
0 -8 7 -8.4856 0.7477
0 -8 8 3.9324 0.1389
0 -8 9 1.4676 0.2599
0 -8 10 -0.6669 -0.1512
0 -8 11 0.9110 -0.1189
0 -8 12 -0.3350 -0.0793
0 -8 13 -0.0753 -0.0459
0 -8 14 -1.4910 0.7406
0 -8 15 -0.0610 0.6271
0 -8 16 -0.0707 -0.9939
0 -8 17 -1.9096 0.0900
0 -7 1 -4.4954 -0.5504
0 -7 2 -0.5968 -1.2299
0 -7 3 -1.7120 0.3359
0 -7 4 5.2752 0.2281
0 -7 5 0.0800 -0.8846
0 -7 6 4.7256 -0.5163
0 -7 7 -6.4262 0.7105
0 -7 8 -1.4706 0.2115
0 -7 9 -2.1197 0.5757
0 -7 10 1.2095 -0.2569
0 -7 11 0.4860 -0.2830
0 -7 12 -0.6001 -0.6368
0 -7 13 0.1709 -0.2260
0 -7 14 1.9696 0.6236
0 -7 15 -0.8059 0.3909
0 -7 16 0.4168 -0.7213
0 -7 17 0.1844 0.4311
0 -6 1 5.6772 -0.6709
0 -6 2 3.3192 -0.7995
0 -6 3 -5.6603 0.6170
0 -6 4 3.8995 0.3833
0 -6 5 -8.1111 -1.3542
0 -6 6 9.9215 -0.0775
0 -6 7 1.0223 -0.0657
0 -6 8 1.0949 -0.2910
0 -6 9 1.3972 0.5408
0 -6 10 2.2941 0.0088
0 -6 11 -1.1491 0.1562
0 -6 12 0.0146 -0.7364
0 -6 13 0.4851 -0.1613
0 -6 14 0.3604 0.1616
0 -6 15 0.7893 -0.1316
0 -6 16 0.5411 0.2710
0 -6 17 0.4107 -0.0287
0 -5 1 9.5919 -0.3847
0 -5 2 -6.9264 0.1009
0 -5 3 -7.6302 0.5764
0 -5 4 3.0326 0.2790
0 -5 5 28.6695 -0.3571
0 -5 6 -9.8998 -0.0963
0 -5 7 -10.1059 -0.4584
0 -5 8 -1.7998 0.1212
0 -5 9 0.8314 0.4689
0 -5 10 0.4257 0.4860
0 -5 11 0.4569 -0.1230
0 -5 12 0.6088 -0.4475
0 -5 13 -2.9335 0.2689
0 -5 14 0.4171 0.1183
0 -5 15 -0.2308 -0.5183
0 -5 16 1.5489 0.6440
0 -5 17 -5.8001 -1.8511
0 -4 1 22.6930 -1.3052
0 -4 2 -3.8719 -0.0079
0 -4 3 7.4704 0.7893
0 -4 4 -50.7861 0.7551
0 -4 5 2.5144 0.4690
0 -4 6 10.2188 -0.4869
0 -4 7 8.1916 -0.3277
0 -4 8 -6.0372 -0.5468
0 -4 9 -0.9882 0.0157
0 -4 10 0.4159 0.3306
0 -4 11 -1.3048 0.2561
0 -4 12 2.0728 -0.3287
0 -4 13 -1.4757 0.6921
0 -4 14 -0.6082 -0.3699
0 -4 15 0.5854 -0.7266
0 -4 16 1.1918 0.4076
0 -3 1 5.2149 -3.0932
0 -3 2 -12.4225 -0.0156
0 -3 3 29.0652 -0.0954
0 -3 4 6.0449 1.1584
0 -3 5 -6.2792 0.0975
0 -3 6 3.2558 -0.2589
0 -3 7 -1.0826 0.1110
0 -3 8 -1.1167 -0.4446
0 -3 9 -0.3653 0.5154
0 -3 10 1.4678 0.5287
0 -3 11 0.6673 -0.1459
0 -3 12 0.0814 -0.6640
0 -3 13 1.7294 0.6913
0 -3 14 -1.0610 -0.3832
0 -3 15 -0.0406 1.7361
0 -3 16 0.2730 -1.7605
0 -2 1 50.4889 -5.3337
0 -2 2 4.7455 0.4343
0 -2 3 -16.1224 -1.1697
0 -2 4 2.1969 0.9641
0 -2 5 -1.8303 0.1116
0 -2 6 1.1257 0.1207
0 -2 7 3.8550 0.1000
0 -2 8 -0.3110 -0.7084
0 -2 9 -1.2516 0.1334
0 -2 10 0.0333 -0.0799
0 -2 11 -0.2416 0.0684
0 -2 12 -1.4138 0.0820
0 -2 13 0.4083 -0.0568
0 -2 14 -0.0322 0.1642
0 -2 15 -0.0202 0.3218
0 -2 16 -1.3197 -2.9165
0 -1 1 -99.0574 -1.6027
0 -1 2 65.6326 -0.6117
0 -1 3 -4.3857 -2.1385
0 -1 4 -12.2497 0.8870
0 -1 5 0.4655 0.3098
0 -1 6 1.8093 0.4491
0 -1 7 0.1510 0.1172
0 -1 8 -0.5975 -0.7253
0 -1 9 -0.8648 -0.2461
0 -1 10 -0.4035 0.0570
0 -1 11 0.0478 0.4677
0 -1 12 -0.8732 -0.2618
0 -1 13 2.5270 -0.9465
0 -1 14 -1.2362 -0.1887
0 -1 15 -0.3484 0.7276
0 0 1 -60.5483 5.5874
0 0 2 -27.1702 -0.7973
0 0 3 19.2346 -1.8538
0 0 4 12.1069 0.5277
0 0 5 -14.1615 -0.3075
0 0 6 0.1292 0.3084
0 0 7 1.8654 0.3864
0 0 8 1.9962 -0.5634
0 0 9 1.1404 -0.1580
0 0 10 -0.5321 -0.0150
0 0 11 1.9501 0.1159
0 0 12 -1.5296 -0.1252
0 0 13 -1.3062 -0.6329
0 0 14 -0.1007 3.0192
0 0 15 -1.8111 -3.8893
0 1 0 -37.5055 -10.2455
0 1 1 70.0303 5.9491
0 1 2 -11.5072 0.0990
0 1 3 -16.4719 -0.6556
0 1 4 9.3419 0.1756
0 1 5 1.2023 -0.6685
0 1 6 1.4273 0.2370
0 1 7 -2.5467 0.5832
0 1 8 1.5911 -0.1620
0 1 9 -1.2575 0.6135
0 1 10 0.5484 0.1471
0 1 11 0.6118 0.4640
0 1 12 1.0549 -1.0261
0 1 13 -0.1262 0.1680
0 1 14 3.3592 -0.4425
0 2 0 -28.5043 -6.1463
0 2 1 -3.9144 3.0299
0 2 2 2.1988 -0.2113
0 2 3 -1.3759 -0.6663
0 2 4 0.2923 0.5522
0 2 5 0.4029 -0.3215
0 2 6 -2.5035 0.5244
0 2 7 -2.4649 0.4084
0 2 8 -0.7824 -0.4930
0 2 9 0.6722 -0.1013
0 2 10 -2.4902 0.0947
0 2 11 0.0689 0.0213
0 2 12 0.3351 0.4220
0 2 13 -2.1386 1.4892
0 2 14 2.2515 -4.9691
0 3 0 -15.7546 -3.0150
0 3 1 7.6953 1.9080
0 3 2 2.7642 -0.1011
0 3 3 4.1408 -0.5325
0 3 4 -6.1269 0.4201
0 3 5 4.3597 -0.6599
0 3 6 0.8059 0.3326
0 3 7 1.0812 -0.0914
0 3 8 -0.3015 -0.5481
0 3 9 0.8425 0.3131
0 3 10 2.0591 0.2838
0 3 11 0.4606 0.1098
0 3 12 0.1941 0.9729
0 3 13 -0.5284 -1.7208
0 4 0 -15.1986 -2.0807
0 4 1 10.0958 0.9230
0 4 2 -1.0719 0.1376
0 4 3 -7.8964 -0.9487
0 4 4 1.6400 0.7295
0 4 5 0.7982 -0.7473
0 4 6 0.7782 0.1203
0 4 7 1.4755 -0.2682
0 4 8 -2.7933 -0.1241
0 4 9 0.1018 -0.1635
0 4 10 -4.1138 -0.8336
0 4 11 -0.4604 -1.1349
0 4 12 1.0035 0.9970
0 5 0 -14.4240 -1.6970
0 5 1 0.1673 0.9654
0 5 2 5.2703 0.4619
0 5 3 3.3689 -0.6552
0 5 4 -0.6595 0.8306
0 5 5 0.4947 -0.9409
0 5 6 -2.3585 -0.0878
0 5 7 1.5712 0.6385
0 5 8 1.5388 0.1224
0 5 9 1.5417 -0.3874
0 5 10 0.2710 -0.4079
0 5 11 0.8251 2.5639
0 5 12 -2.6475 -4.7060
0 6 0 1.9038 -1.5346
0 6 1 -2.1699 0.8734
0 6 2 -3.1919 0.6749
0 6 3 1.8118 -0.6444
0 6 4 -3.6889 0.9345
0 6 5 -0.8691 -0.6517
0 6 6 0.5082 0.6216
0 6 7 0.9048 1.2813
0 6 8 0.2115 -0.9659
0 6 9 0.9917 -0.1709
0 6 10 0.9450 0.9707
0 6 11 2.7232 -1.3207
0 7 0 4.8757 -1.2008
0 7 1 -6.3337 0.0788
0 7 2 3.3033 0.9295
0 7 3 -0.6011 -0.6885
0 7 4 1.9061 1.0883
0 7 5 -0.7699 -0.7668
0 7 6 -0.1044 1.0006
0 7 7 -2.5394 -0.1244
0 7 8 -0.0866 -0.0897
0 7 9 -3.1209 0.7398
0 7 10 0.8489 -0.9876
0 8 0 6.5009 -0.5149
0 8 1 -3.1707 -0.7724
0 8 2 0.9554 0.8103
0 8 3 1.3229 -0.8926
0 8 4 -0.7544 0.2001
0 8 5 -0.4607 -0.9106
0 8 6 -0.9346 -0.9900
0 8 7 1.1717 0.3173
0 8 8 -1.8859 1.5057
0 8 9 0.9152 -0.8076
0 9 0 -0.1938 0.2613
0 9 1 1.3445 -1.4117
0 9 2 -1.0833 0.7188
0 9 3 0.6864 -0.3440
0 9 4 2.2036 0.4998
0 9 5 -0.1775 -1.2562
0 9 6 2.3416 -1.2486
0 9 7 -0.3062 2.0685
0 9 8 1.9158 -0.9849
0 10 0 0.3169 2.4429
0 10 1 1.1363 -1.8367
0 10 2 -2.1700 0.4846
0 10 3 -1.4420 0.3790
0 10 4 1.1579 1.1299
0 10 5 0.1481 0.2552
0 10 6 -0.0187 -0.3878
0 10 7 0.6124 -4.1282
0 11 0 -0.7615 3.7941
0 11 1 1.3987 -2.2744
0 11 2 -1.3224 0.5213
0 11 3 -0.0948 0.2427
0 11 4 -0.8527 1.9493
0 11 5 -0.2616 -1.3586
0 12 0 -0.1998 2.7032
0 12 1 0.7340 -2.4559
0 12 2 1.3994 0.0370
0 12 3 -1.7963 0.7597
0 12 4 -0.3848 -0.2434
0 13 0 -0.5671 1.2957
0 13 1 -1.3576 -0.2140
0 13 2 1.9388 -0.5024
0 13 3 2.4396 -5.0738
0 14 0 3.8387 1.8182
0 14 1 -2.2828 -1.7975
1 -17 6 -1.9505 4.6685
1 -17 7 -2.1938 2.4342
1 -17 8 1.7624 2.6422
1 -17 9 0.0315 2.5187
1 -17 10 -1.1619 2.9495
1 -17 11 0.4886 3.4891
1 -16 2 -1.5381 2.8111
1 -16 3 2.1015 3.7228
1 -16 4 -1.4133 2.1837
1 -16 5 1.8959 -0.6249
1 -16 6 2.1256 -2.5816
1 -16 7 4.0989 -2.3150
1 -16 8 -1.8143 -1.2395
1 -16 9 -2.7171 -1.2872
1 -16 10 -0.3070 -2.1486
1 -16 11 3.4405 0.8945
1 -16 12 -0.4602 4.3807
1 -16 13 -0.0655 4.1531
1 -15 0 1.4499 5.6725
1 -15 1 0.1805 -2.1246
1 -15 2 -2.1926 -2.9279
1 -15 3 -1.0037 -2.0014
1 -15 4 -0.6336 -1.1091
1 -15 5 -0.5557 1.2209
1 -15 6 -2.1387 -0.3873
1 -15 7 -0.5002 -0.5817
1 -15 8 0.4030 -0.2813
1 -15 9 1.2269 -0.0669
1 -15 10 -4.2238 -0.3998
1 -15 11 -3.1795 -1.1412
1 -15 12 -1.1074 -1.4166
1 -15 13 -0.0560 1.1891
1 -15 14 -4.0447 3.6310
1 -15 15 -0.2402 2.5365
1 -14 0 0.8348 1.1643
1 -14 1 -1.2914 1.0817
1 -14 2 2.2277 -0.3497
1 -14 3 -2.0290 0.2218
1 -14 4 0.0081 0.2073
1 -14 5 -1.3158 1.6849
1 -14 6 -0.5314 0.3385
1 -14 7 -0.7903 -0.0285
1 -14 8 3.8003 0.4906
1 -14 9 2.6728 0.1677
1 -14 10 -0.7639 -0.4144
1 -14 11 3.0727 -1.0306
1 -14 12 0.1898 -0.6334
1 -14 13 0.4611 -0.2164
1 -14 14 -1.6271 -0.1872
1 -14 15 -1.6149 3.4739
1 -13 0 0.0509 -0.8939
1 -13 1 0.2825 2.0109
1 -13 2 2.1275 0.6915
1 -13 3 0.4114 -0.2254
1 -13 4 2.2726 -0.5868
1 -13 5 -1.1996 0.9712
1 -13 6 -0.9080 0.2147
1 -13 7 -0.2260 0.0232
1 -13 8 0.3123 0.3039
1 -13 9 -0.7348 0.4359
1 -13 10 0.7730 0.5983
1 -13 11 -0.8726 0.1502
1 -13 12 0.9555 -0.3460
1 -13 13 1.1459 -1.2520
1 -13 14 -0.4030 -0.4119
1 -13 15 0.3416 0.6770
1 -13 16 1.1738 3.9700
1 -12 0 0.5593 -2.4353
1 -12 1 0.8129 1.1851
1 -12 2 0.8317 -0.0794
1 -12 3 -1.6765 -0.7142
1 -12 4 3.1239 -1.1645
1 -12 5 2.6125 0.7019
1 -12 6 -0.6537 0.1296
1 -12 7 -3.2036 0.2245
1 -12 8 -1.0972 0.2179
1 -12 9 -2.1848 0.3562
1 -12 10 1.0366 0.3891
1 -12 11 3.0306 -0.2519
1 -12 12 -0.4860 -0.2357
1 -12 13 1.4501 0.1010
1 -12 14 -0.4846 0.3290
1 -12 15 -2.2734 -1.3455
1 -12 16 -1.0605 4.2999
1 -11 0 -4.4517 -3.1299
1 -11 1 0.6974 2.0126
1 -11 2 -3.2422 0.2951
1 -11 3 1.6867 -0.4484
1 -11 4 -1.5663 -1.1086
1 -11 5 -2.6296 0.2236
1 -11 6 5.3890 -0.5257
1 -11 7 1.3877 -0.7803
1 -11 8 -0.0321 -0.5408
1 -11 9 -1.9228 0.7713
1 -11 10 -0.2891 0.1621
1 -11 11 -3.4404 0.5295
1 -11 12 0.8854 -0.3071
1 -11 13 0.1214 0.1632
1 -11 14 1.2413 -0.8664
1 -11 15 -2.3119 -1.4284
1 -11 16 -0.1586 1.3576
1 -11 17 1.4592 3.0424
1 -10 0 -1.8618 -3.2141
1 -10 1 2.7725 1.9655
1 -10 2 -5.3561 -0.4236
1 -10 3 0.6206 0.2277
1 -10 4 0.7768 -0.7347
1 -10 5 -2.1697 0.8951
1 -10 6 -1.0218 -0.4507
1 -10 7 5.1941 -1.0161
1 -10 8 -2.6035 -0.2543
1 -10 9 2.3228 0.3395
1 -10 10 -0.4004 -0.0436
1 -10 11 -2.3887 -0.1364
1 -10 12 4.2876 -0.0084
1 -10 13 -2.0027 0.2796
1 -10 14 2.2267 -0.9638
1 -10 15 0.2243 0.6492
1 -10 16 1.3067 -2.0875
1 -10 17 1.0036 2.3596
1 -9 0 -2.4103 -3.2987
1 -9 1 4.8152 2.1890
1 -9 2 -1.1159 -0.3306
1 -9 3 3.4456 0.5463
1 -9 4 -3.7475 -0.1226
1 -9 5 0.7046 1.6713
1 -9 6 -2.0521 -0.0287
1 -9 7 1.1177 -0.2929
1 -9 8 3.5770 0.1181
1 -9 9 -3.3793 -0.4829
1 -9 10 1.0751 -0.0841
1 -9 11 -0.5887 0.7136
1 -9 12 1.5274 0.2881
1 -9 13 -2.3718 -0.2688
1 -9 14 0.5005 -0.3399
1 -9 15 -1.1557 0.7360
1 -9 16 0.6372 -1.6813
1 -9 17 -1.5160 2.0618
1 -8 0 4.1416 -3.2841
1 -8 1 5.4347 2.7615
1 -8 2 -4.3735 -0.7333
1 -8 3 2.0325 0.0482
1 -8 4 -1.4235 -1.0076
1 -8 5 -3.6982 1.2711
1 -8 6 0.0850 0.1166
1 -8 7 3.1358 -0.0072
1 -8 8 -4.0506 -0.1828
1 -8 9 2.5745 -0.2916
1 -8 10 -2.5835 0.3533
1 -8 11 -2.6720 0.2827
1 -8 12 1.8111 0.5645
1 -8 13 0.1726 -0.0605
1 -8 14 1.1290 0.0304
1 -8 15 -2.7734 0.7680
1 -8 16 0.8025 -1.3461
1 -8 17 1.6861 2.3686
1 -7 0 -9.5060 -4.8579
1 -7 1 -7.5122 3.2259
1 -7 2 12.6799 -1.0607
1 -7 3 2.2772 -0.6750
1 -7 4 0.2897 -1.2695
1 -7 5 -4.6793 1.6655
1 -7 6 -2.3874 -0.4484
1 -7 7 -0.3510 0.5070
1 -7 8 1.2759 -0.2441
1 -7 9 1.7295 -0.4801
1 -7 10 1.6675 -0.5007
1 -7 11 -0.8062 0.0559
1 -7 12 0.4800 0.5546
1 -7 13 -1.0648 -0.0904
1 -7 14 0.3148 0.0531
1 -7 15 -0.3682 -0.0331
1 -7 16 -0.1069 -1.2697
1 -7 17 0.3003 2.1161
1 -6 0 11.1804 -6.2543
1 -6 1 -21.2942 4.3221
1 -6 2 1.8017 -0.8827
1 -6 3 3.7299 -0.5885
1 -6 4 11.7953 -1.1912
1 -6 5 -7.6547 0.9799
1 -6 6 2.1130 -0.3283
1 -6 7 4.5169 0.2785
1 -6 8 3.4322 0.0673
1 -6 9 -3.4366 -0.1468
1 -6 10 0.8413 -0.7519
1 -6 11 -1.2601 -0.0734
1 -6 12 -0.5034 -0.0295
1 -6 13 3.4354 -0.0664
1 -6 14 -0.2880 0.1274
1 -6 15 -1.3897 -0.5347
1 -6 16 1.1005 -2.0507
1 -6 17 -1.8238 3.5108
1 -5 0 12.2592 -7.2579
1 -5 1 -10.1176 5.5258
1 -5 2 5.2470 -0.4466
1 -5 3 -5.7840 -0.5467
1 -5 4 9.2005 -0.6829
1 -5 5 -1.9959 0.4664
1 -5 6 -0.9620 -0.6432
1 -5 7 -3.6714 0.6230
1 -5 8 -1.9669 0.6119
1 -5 9 0.1437 -0.1361
1 -5 10 2.1224 -0.4260
1 -5 11 -1.4526 -0.1739
1 -5 12 0.1315 -0.1739
1 -5 13 -1.0028 0.3563
1 -5 14 1.3647 1.1245
1 -5 15 -0.3194 -0.2321
1 -5 16 -0.5855 0.5751
1 -4 0 19.3408 -7.7571
1 -4 1 -19.9962 5.8040
1 -4 2 0.8214 -0.5676
1 -4 3 -13.3230 0.3002
1 -4 4 7.2650 -0.6272
1 -4 5 -6.3584 0.3329
1 -4 6 -7.5046 -0.5900
1 -4 7 2.9148 0.4820
1 -4 8 4.4190 0.5171
1 -4 9 -0.2487 0.3400
1 -4 10 -0.2669 -0.0213
1 -4 11 1.5741 -0.0474
1 -4 12 -2.9627 -0.4843
1 -4 13 1.1453 -0.0065
1 -4 14 0.4409 0.1083
1 -4 15 0.6588 -0.5821
1 -4 16 -3.4169 2.3545
1 -3 0 31.9370 -8.0950
1 -3 1 2.8921 4.7792
1 -3 2 -22.0853 -1.9494
1 -3 3 18.8750 1.3742
1 -3 4 6.6317 -0.5315
1 -3 5 1.1164 0.2756
1 -3 6 2.0295 -0.8649
1 -3 7 -1.6049 -0.0111
1 -3 8 -1.4070 0.2669
1 -3 9 -1.2430 0.1564
1 -3 10 -1.2776 0.3261
1 -3 11 3.7653 0.2652
1 -3 12 -1.9244 0.2754
1 -3 13 -0.9825 -0.2545
1 -3 14 0.7241 0.2114
1 -3 15 2.4923 -1.3455
1 -3 16 -5.5090 3.2894
1 -2 0 -33.5500 -6.5476
1 -2 1 59.8433 2.0624
1 -2 2 -18.0935 -1.4818
1 -2 3 -14.8229 1.3013
1 -2 4 6.4582 -0.8325
1 -2 5 6.7378 0.8257
1 -2 6 -6.1792 -0.6980
1 -2 7 1.4551 0.0085
1 -2 8 -0.5922 0.0229
1 -2 9 1.2547 -0.1761
1 -2 10 -2.0405 -0.2263
1 -2 11 0.0528 0.1685
1 -2 12 2.5482 -0.2133
1 -2 13 -2.6201 0.3543
1 -2 14 -0.1906 0.1194
1 -2 15 -0.0521 -0.2456
1 -1 0 -22.9716 -4.0517
1 -1 1 -21.1595 2.0347
1 -1 2 18.4709 -0.5162
1 -1 3 -5.0526 1.1333
1 -1 4 -7.5317 -0.8116
1 -1 5 2.8030 0.5238
1 -1 6 -0.5861 -0.9610
1 -1 7 -0.9573 -0.1441
1 -1 8 1.5841 0.1746
1 -1 9 1.1615 0.0189
1 -1 10 -1.4662 -0.2608
1 -1 11 -0.8014 -0.0319
1 -1 12 0.7011 -0.5431
1 -1 13 0.8287 0.4469
1 -1 14 1.4657 -1.1489
1 -1 15 -0.0850 1.9216
1 0 0 -7.1273 -3.0942
1 0 1 25.6890 1.8791
1 0 2 -13.2719 -1.2214
1 0 3 -3.2838 0.8932
1 0 4 7.3327 -0.8626
1 0 5 -0.0038 1.2281
1 0 6 4.3584 -0.6672
1 0 7 -1.9315 0.1816
1 0 8 -1.4168 0.1361
1 0 9 1.4926 -0.4156
1 0 10 0.3177 -0.0557
1 0 11 0.3274 -0.1778
1 0 12 -0.3841 0.0409
1 0 13 -1.3872 0.9098
1 0 14 -2.0075 0.0367
1 1 0 -26.7105 -2.0154
1 1 1 -4.2657 0.5679
1 1 2 11.9491 -1.7706
1 1 3 2.0106 1.2267
1 1 4 -6.3740 -0.1825
1 1 5 -0.8126 1.3294
1 1 6 -2.1813 -0.3845
1 1 7 4.1201 -0.1580
1 1 8 0.5229 0.0789
1 1 9 -0.6617 0.2194
1 1 10 0.9887 0.5272
1 1 11 -0.0284 -0.2735
1 1 12 0.1498 -0.2161
1 1 13 1.0583 0.1120
1 1 14 -0.0880 2.3142
1 2 0 20.7417 -0.1601
1 2 1 -11.8829 0.9667
1 2 2 -1.2231 -1.2614
1 2 3 6.0860 0.9659
1 2 4 -13.0276 -1.0816
1 2 5 6.3119 0.7545
1 2 6 -1.1068 -0.6594
1 2 7 -5.3383 0.3252
1 2 8 1.2509 0.5281
1 2 9 -3.9171 0.7996
1 2 10 1.7778 0.2012
1 2 11 -1.6966 -1.0323
1 2 12 1.0715 -0.5359
1 2 13 0.1317 -0.1513
1 3 0 14.1502 -0.1069
1 3 1 -8.3727 1.1134
1 3 2 -6.8864 -1.5734
1 3 3 13.6758 0.7705
1 3 4 5.2191 -0.8177
1 3 5 -8.4357 1.0014
1 3 6 5.5173 -0.3769
1 3 7 -2.0422 -0.2100
1 3 8 5.2740 -0.4918
1 3 9 0.6476 0.2831
1 3 10 0.2460 -0.4757
1 3 11 0.0269 0.7244
1 3 12 0.5362 1.3826
1 4 0 4.7525 -0.9008
1 4 1 4.2186 1.5160
1 4 2 1.0628 -1.5702
1 4 3 -13.3905 0.4179
1 4 4 8.6977 -0.6713
1 4 5 1.8610 0.3639
1 4 6 -3.4966 -0.5715
1 4 7 0.9468 -0.6049
1 4 8 -5.0168 -0.3595
1 4 9 -0.8737 0.1815
1 4 10 -2.0160 -0.1458
1 4 11 1.3170 1.8623
1 4 12 1.4009 -1.5555
1 5 0 3.7937 -1.7721
1 5 1 -4.0010 2.2163
1 5 2 3.1088 -1.4173
1 5 3 3.7032 0.5532
1 5 4 -4.1418 -0.3306
1 5 5 2.4304 0.5784
1 5 6 -1.1150 0.0582
1 5 7 2.4366 -0.2850
1 5 8 4.6967 -0.0763
1 5 9 -0.2675 -0.2609
1 5 10 -1.3576 0.2616
1 5 11 -2.2043 -1.8922
1 6 0 0.9799 -2.6971
1 6 1 5.1049 2.7494
1 6 2 -12.2068 -1.0634
1 6 3 -0.6815 0.5291
1 6 4 1.4811 -0.2782
1 6 5 0.3598 0.7199
1 6 6 1.5005 0.2953
1 6 7 -3.5347 -0.0759
1 6 8 0.8048 0.1129
1 6 9 0.7090 -0.3462
1 6 10 5.4576 -0.0873
1 7 0 -6.0213 -3.1252
1 7 1 2.0462 3.2040
1 7 2 10.5477 -0.8702
1 7 3 -4.8112 0.1644
1 7 4 -0.6765 -0.4572
1 7 5 -3.7709 1.4100
1 7 6 1.7523 0.0394
1 7 7 -0.1635 0.4052
1 7 8 -1.6533 -0.2640
1 7 9 0.3264 0.3331
1 8 0 1.9614 -3.4796
1 8 1 -3.8420 2.6501
1 8 2 1.0612 -1.2453
1 8 3 1.4606 -0.6161
1 8 4 -0.0205 -0.5210
1 8 5 2.4410 0.7648
1 8 6 -3.5921 -0.7321
1 8 7 0.7912 0.2046
1 8 8 -4.1869 0.0742
1 9 0 -1.4243 -3.6994
1 9 1 1.4391 2.2650
1 9 2 0.2117 -1.1866
1 9 3 -0.2290 -0.8252
1 9 4 -0.1992 -0.7555
1 9 5 2.6590 0.3870
1 9 6 1.6931 -1.2559
1 9 7 0.9464 1.9627
1 10 0 -2.7311 -2.8492
1 10 1 0.7220 3.0182
1 10 2 -1.0606 -0.3187
1 10 3 1.4208 0.1338
1 10 4 -2.1732 -0.8097
1 10 5 1.5463 -1.1115
1 10 6 -2.0302 1.6280
1 11 0 0.6395 -3.7036
1 11 1 -0.9398 3.1016
1 11 2 0.4749 0.8020
1 11 3 -1.2733 1.3511
1 11 4 0.2296 -0.6079
1 11 5 -2.4297 0.7461
1 12 0 -1.0981 -4.3444
1 12 1 0.7051 3.1375
1 12 2 -1.3179 -0.4693
1 12 3 0.8708 0.3426
1 13 0 0.9000 -5.4381
1 13 1 1.3963 0.9811
1 13 2 -0.6857 -4.4549
1 14 0 -2.1739 -3.1408
2 -17 5 0.2068 0.8776
2 -17 6 5.7819 0.6564
2 -17 7 -2.1976 0.2190
2 -17 8 1.8262 0.2579
2 -17 9 -5.7085 -0.2883
2 -17 10 10.5154 -0.5697
2 -17 11 -4.2749 -0.6813
2 -16 2 0.0089 1.1644
2 -16 3 6.5305 2.1456
2 -16 4 6.3153 0.0742
2 -16 5 -4.9118 -0.5425
2 -16 6 1.1279 -0.3327
2 -16 7 -3.8715 -0.9291
2 -16 8 2.0280 0.1086
2 -16 9 -2.2304 -0.2038
2 -16 10 -1.4019 1.3487
2 -16 11 -0.7178 -0.5437
2 -16 12 5.2424 -1.2473
2 -16 13 -1.6478 -1.3702
2 -15 0 2.0243 4.0235
2 -15 1 0.0079 -2.3749
2 -15 2 -1.7578 -0.2449
2 -15 3 -5.3320 -1.2207
2 -15 4 -1.9274 -0.2962
2 -15 5 -2.0081 -0.1263
2 -15 6 5.8260 0.2261
2 -15 7 1.3995 0.0188
2 -15 8 -2.8878 0.6092
2 -15 9 1.7774 0.3097
2 -15 10 -3.2871 -0.8472
2 -15 11 -1.3754 1.0396
2 -15 12 -2.1815 1.8780
2 -15 13 -2.4494 -0.4056
2 -15 14 0.0588 -0.8729
2 -14 0 -0.2100 2.5490
2 -14 1 -1.6419 -1.0049
2 -14 2 0.6459 1.1068
2 -14 3 -0.2715 0.6590
2 -14 4 -0.1856 0.2957
2 -14 5 1.4018 -0.3463
2 -14 6 -3.2311 -0.0839
2 -14 7 1.2481 -0.2995
2 -14 8 0.0002 0.3469
2 -14 9 4.1032 -1.2836
2 -14 10 -1.1302 0.4478
2 -14 11 2.5422 1.6976
2 -14 12 1.2867 -0.0021
2 -14 13 -1.2969 0.6504
2 -14 14 -0.9226 -0.4830
2 -14 15 0.9614 -2.3155
2 -13 0 2.2692 3.1803
2 -13 1 -1.1653 -2.9109
2 -13 2 4.2956 0.5921
2 -13 3 -0.8588 -0.1664
2 -13 4 -0.5622 0.3519
2 -13 5 0.7219 -0.1121
2 -13 6 -3.2285 0.3697
2 -13 7 -0.3069 0.0125
2 -13 8 1.6086 -0.1640
2 -13 9 1.2341 -1.0385
2 -13 10 0.1130 -0.9824
2 -13 11 -0.6211 -1.1939
2 -13 12 -2.5951 0.4076
2 -13 13 2.8420 1.3771
2 -13 14 -0.4387 2.7247
2 -13 15 2.7822 -0.4061
2 -13 16 -0.4741 -1.8225
2 -12 0 1.6968 3.4386
2 -12 1 -1.0597 -2.8011
2 -12 2 1.0572 1.0045
2 -12 3 2.5654 0.3126
2 -12 4 0.3263 0.3198
2 -12 5 1.2427 -0.7754
2 -12 6 1.3099 0.4380
2 -12 7 -2.9549 0.2666
2 -12 8 -2.3170 0.9445
2 -12 9 -2.5857 0.1676
2 -12 10 2.7872 -0.1477
2 -12 11 -0.5310 -0.8234
2 -12 12 0.8668 -0.7800
2 -12 13 0.5857 0.7465
2 -12 14 -1.5756 0.1024
2 -12 15 -0.1924 1.0988
2 -12 16 -1.4006 -1.1035
2 -11 0 -2.0694 5.0276
2 -11 1 -1.0338 -3.5932
2 -11 2 -1.2378 0.9575
2 -11 3 -1.0275 -0.0588
2 -11 4 -0.5305 0.2347
2 -11 5 0.4233 -0.5487
2 -11 6 2.4094 0.1350
2 -11 7 -0.5416 0.2319
2 -11 8 0.8916 0.8580
2 -11 9 0.4438 0.0509
2 -11 10 0.3965 0.5531
2 -11 11 -0.3865 -1.0438
2 -11 12 -1.2261 -0.5430
2 -11 13 -1.7051 -0.7081
2 -11 14 0.0085 0.5127
2 -11 15 0.7027 1.9402
2 -11 16 0.4249 -0.3656
2 -10 0 -0.6011 5.5281
2 -10 1 1.2559 -3.9207
2 -10 2 -1.6184 0.8891
2 -10 3 -0.4194 -0.0199
2 -10 4 -1.4320 0.2002
2 -10 5 2.9209 -1.1998
2 -10 6 -0.1669 -0.2034
2 -10 7 0.2272 -0.1938
2 -10 8 -1.2212 -0.3392
2 -10 9 1.4799 0.5201
2 -10 10 1.2684 0.7253
2 -10 11 -0.2098 -0.1858
2 -10 12 0.4991 0.0448
2 -10 13 2.0320 -1.0620
2 -10 14 -0.6889 -0.7000
2 -10 15 0.4856 1.1378
2 -10 16 2.4616 0.9924
2 -9 0 0.0680 5.8369
2 -9 1 1.0607 -4.1705
2 -9 2 -2.1542 1.2069
2 -9 3 0.8488 0.3762
2 -9 4 0.4924 0.6854
2 -9 5 -0.0076 -0.4736
2 -9 6 0.5809 0.1151
2 -9 7 -2.3189 -0.2051
2 -9 8 0.2587 0.0258
2 -9 9 -0.0111 -0.0118
2 -9 10 -1.9066 0.6332
2 -9 11 2.2774 0.1391
2 -9 12 0.0825 0.1001
2 -9 13 -1.6830 -0.7700
2 -9 14 0.5113 -0.4824
2 -9 15 -1.0641 0.6723
2 -9 16 -3.3432 2.3239
2 -8 0 0.9602 5.7646
2 -8 1 3.0603 -4.3666
2 -8 2 1.8525 1.3415
2 -8 3 -5.1909 0.6588
2 -8 4 0.2328 0.4319
2 -8 5 -0.3525 -0.7755
2 -8 6 -2.2626 0.3826
2 -8 7 3.2129 -0.2751
2 -8 8 -2.8338 -0.3782
2 -8 9 -1.7815 -0.0060
2 -8 10 -0.4328 0.1512
2 -8 11 0.7088 0.4337
2 -8 12 0.0559 0.5960
2 -8 13 -0.4300 0.1662
2 -8 14 0.1816 -0.6307
2 -8 15 1.9765 0.2090
2 -8 16 -1.1982 2.5176
2 -7 0 1.9463 5.2526
2 -7 1 0.5009 -4.0581
2 -7 2 -1.4582 1.0896
2 -7 3 -1.1709 0.1204
2 -7 4 -3.0173 -0.0383
2 -7 5 5.0147 -0.3336
2 -7 6 1.3654 0.4834
2 -7 7 -1.9059 -0.3970
2 -7 8 0.6883 -0.1954
2 -7 9 2.1774 -0.1288
2 -7 10 -1.3249 0.1861
2 -7 11 0.0920 0.2020
2 -7 12 -2.8958 0.2217
2 -7 13 5.0723 -0.2645
2 -7 14 -2.7066 -0.7834
2 -7 15 1.3273 -0.6394
2 -7 16 -3.5946 1.9474
2 -6 0 -7.7563 5.5331
2 -6 1 13.6746 -3.9559
2 -6 2 0.6276 0.5365
2 -6 3 3.1680 0.2262
2 -6 4 -5.4297 0.0402
2 -6 5 6.5192 0.0633
2 -6 6 0.1450 0.5721
2 -6 7 -0.3086 -0.3098
2 -6 8 0.5840 -0.0324
2 -6 9 1.4147 -0.3002
2 -6 10 -0.3688 -0.5085
2 -6 11 1.7691 -0.2530
2 -6 12 -3.6227 -0.0692
2 -6 13 -2.1547 -0.3292
2 -6 14 0.9822 0.0315
2 -6 15 1.8160 -0.1554
2 -6 16 0.8852 2.0790
2 -5 0 -9.9812 5.4147
2 -5 1 2.9385 -3.4429
2 -5 2 1.7407 0.5630
2 -5 3 -4.1237 0.5314
2 -5 4 2.4344 0.1411
2 -5 5 -4.3088 -0.5329
2 -5 6 -0.2269 0.5287
2 -5 7 2.9197 -0.3213
2 -5 8 -2.2288 -0.0059
2 -5 9 -0.7882 -0.2934
2 -5 10 -0.9733 0.2753
2 -5 11 3.0931 0.2883
2 -5 12 4.6576 0.5993
2 -5 13 -2.3578 -0.4492
2 -5 14 -0.9486 -0.2124
2 -5 15 -0.7399 -1.7730
2 -5 16 5.9884 1.6634
2 -4 0 -7.8336 5.6395
2 -4 1 -6.5486 -3.6199
2 -4 2 12.1926 0.4740
2 -4 3 -7.6977 0.8676
2 -4 4 -10.2519 -0.1813
2 -4 5 3.7986 -0.3552
2 -4 6 1.8725 0.7947
2 -4 7 -4.5304 0.1233
2 -4 8 1.9487 0.2009
2 -4 9 1.4810 -0.1012
2 -4 10 -1.8278 0.1077
2 -4 11 -1.6214 0.2143
2 -4 12 0.9951 0.4098
2 -4 13 2.0070 -0.0538
2 -4 14 0.8864 -0.6615
2 -4 15 -1.6851 0.8432
2 -3 0 -1.2091 5.5849
2 -3 1 0.6462 -3.9205
2 -3 2 -4.4649 0.4436
2 -3 3 16.3849 0.4050
2 -3 4 -1.8890 -0.7342
2 -3 5 -1.8346 -0.4974
2 -3 6 2.7771 0.9050
2 -3 7 -0.7313 0.0019
2 -3 8 0.0412 -0.0157
2 -3 9 0.0929 -0.2708
2 -3 10 -0.0359 -0.0267
2 -3 11 -2.9457 -0.3723
2 -3 12 -0.8801 1.2143
2 -3 13 -0.0722 0.1704
2 -3 14 -2.3362 -0.2125
2 -3 15 -0.0564 3.0709
2 -2 0 8.0968 5.4302
2 -2 1 -19.4976 -3.7544
2 -2 2 16.5478 1.2167
2 -2 3 -1.6121 0.0946
2 -2 4 -4.7851 -0.5301
2 -2 5 1.5914 -0.2571
2 -2 6 -0.8049 0.3992
2 -2 7 0.8411 -0.3587
2 -2 8 -2.1362 0.2337
2 -2 9 0.2683 0.0344
2 -2 10 3.0998 -0.3110
2 -2 11 -1.8530 -0.3048
2 -2 12 2.6088 0.7132
2 -2 13 -1.8667 -0.6675
2 -2 14 1.2940 -2.4533
2 -2 15 -1.8736 3.5241
2 -1 0 32.7937 4.5981
2 -1 1 -20.2537 -3.1572
2 -1 2 -8.6067 1.7359
2 -1 3 4.3056 -0.1468
2 -1 4 1.9682 -0.3286
2 -1 5 -3.5130 -0.2202
2 -1 6 -0.0028 0.0277
2 -1 7 1.6411 -0.4258
2 -1 8 -0.0252 0.2688
2 -1 9 -0.5030 -0.4843
2 -1 10 -0.0340 -0.4335
2 -1 11 -0.3155 -0.4833
2 -1 12 0.8465 1.2736
2 -1 13 3.4918 -0.1163
2 -1 14 -1.7559 -0.0429
2 0 0 -9.0945 3.5932
2 0 1 15.1542 -2.3655
2 0 2 2.8641 1.6535
2 0 3 -2.7770 -0.1503
2 0 4 3.5723 -0.1479
2 0 5 1.9112 -0.1343
2 0 6 -0.3604 -0.0157
2 0 7 1.2172 0.1304
2 0 8 -1.1273 0.4657
2 0 9 1.4245 0.1513
2 0 10 1.4772 -0.6014
2 0 11 -3.6221 -0.2321
2 0 12 -0.9081 -0.1387
2 0 13 2.2841 -1.9548
2 0 14 0.7647 3.4986
2 1 0 7.9857 3.3516
2 1 1 -3.3891 -2.6338
2 1 2 -7.8426 1.1938
2 1 3 2.1921 0.0332
2 1 4 -0.2161 -0.1145
2 1 5 -0.4984 0.1281
2 1 6 -1.3194 0.1818
2 1 7 1.9448 -0.0524
2 1 8 -2.1414 0.6439
2 1 9 1.6344 -0.2062
2 1 10 0.9065 -0.0917
2 1 11 1.1438 1.0949
2 1 12 -4.2900 -0.6416
2 1 13 1.6613 2.7494
2 2 0 -0.4246 2.7991
2 2 1 -3.7429 -2.6141
2 2 2 3.9322 1.0018
2 2 3 -3.0810 0.4783
2 2 4 -2.3618 -0.1344
2 2 5 -0.6691 0.1008
2 2 6 -0.0218 -0.2325
2 2 7 -3.3565 0.0933
2 2 8 -0.7255 0.4487
2 2 9 -0.6677 -0.1366
2 2 10 -0.5468 0.2904
2 2 11 1.8348 0.8663
2 2 12 -0.2599 -1.4990
2 3 0 2.1989 2.5171
2 3 1 3.4523 -2.5698
2 3 2 3.5057 0.5742
2 3 3 -2.7597 0.5315
2 3 4 1.8126 -0.4665
2 3 5 3.6363 -0.2630
2 3 6 -0.2172 0.0815
2 3 7 3.7928 0.0025
2 3 8 -0.8456 0.5273
2 3 9 2.1778 -0.7602
2 3 10 -1.4761 -0.0627
2 3 11 1.6178 -1.8991
2 3 12 0.1465 3.7067
2 4 0 -0.6665 2.5115
2 4 1 -0.5855 -2.2254
2 4 2 3.0387 0.5618
2 4 3 -1.6193 0.6541
2 4 4 -0.3529 -0.9365
2 4 5 -1.2200 -0.0237
2 4 6 -1.5800 -0.5425
2 4 7 -0.6327 -0.3846
2 4 8 -2.2462 0.3120
2 4 9 -0.7040 -0.0875
2 4 10 -0.2167 0.5574
2 4 11 0.4852 0.6650
2 5 0 -2.2502 2.5539
2 5 1 0.5417 -1.9187
2 5 2 -2.1443 0.2653
2 5 3 4.1785 0.3570
2 5 4 0.5944 -0.0399
2 5 5 -0.5048 -0.0022
2 5 6 2.8920 -0.3867
2 5 7 1.6070 -0.2923
2 5 8 -0.4092 0.3778
2 5 9 -0.0289 -0.4225
2 5 10 0.8419 0.1975
2 6 0 -3.3367 2.0373
2 6 1 0.2754 -1.7952
2 6 2 -3.4279 0.1802
2 6 3 -0.1524 1.1433
2 6 4 -1.9393 -0.0660
2 6 5 -2.0995 0.5939
2 6 6 1.4933 -0.2680
2 6 7 0.2625 0.5938
2 6 8 0.1227 -1.5998
2 6 9 -0.7448 1.7401
2 7 0 5.2502 2.3021
2 7 1 -1.7021 -1.2363
2 7 2 1.2957 0.5671
2 7 3 1.5080 0.2700
2 7 4 -0.7554 0.2160
2 7 5 -0.3832 0.0956
2 7 6 -0.0402 1.0568
2 7 7 0.0140 -1.2170
2 7 8 0.1454 2.1650
2 8 0 -2.1051 1.8829
2 8 1 1.7020 -1.3685
2 8 2 -0.0779 -0.6724
2 8 3 0.5674 0.2860
2 8 4 -0.2299 -0.2232
2 8 5 -1.1521 0.1889
2 8 6 -1.2567 0.6487
2 8 7 -2.7975 0.2953
2 9 0 0.2053 1.6348
2 9 1 -1.1748 -1.7927
2 9 2 -0.4075 -0.7119
2 9 3 0.5486 1.2403
2 9 4 1.4389 -1.5248
2 9 5 3.1978 -0.9110
2 9 6 1.1194 -0.2322
2 10 0 1.3837 1.9354
2 10 1 0.2222 -1.3993
2 10 2 -0.7162 0.0308
2 10 3 0.6594 1.5926
2 10 4 -2.8074 -3.7717
2 10 5 -0.6764 2.5290
2 11 0 1.7797 2.7576
2 11 1 0.2536 -1.2936
2 11 2 -0.9420 -0.6639
2 11 3 -0.8815 0.2238
2 11 4 2.5935 3.7972
2 12 0 -1.7838 4.3851
2 12 1 0.1227 -2.0166
2 12 2 1.9854 6.4889
2 13 0 0.9380 -0.4486
3 -17 4 -1.3765 -3.9677
3 -17 5 1.3836 -3.1564
3 -17 6 2.2976 -1.5654
3 -17 7 3.2972 -0.3653
3 -17 8 -0.7528 -1.2649
3 -17 9 0.6216 -1.5120
3 -17 10 0.0614 -2.4128
3 -17 11 -0.6800 -4.2169
3 -16 1 1.9103 -2.3869
3 -16 2 1.4996 -3.7424
3 -16 3 1.5072 0.3647
3 -16 4 1.6091 2.6497
3 -16 5 -0.2158 0.7824
3 -16 6 -2.0314 1.1893
3 -16 7 -1.5961 0.7910
3 -16 8 -3.7446 0.3621
3 -16 9 1.4311 0.7022
3 -16 10 0.1811 1.1234
3 -16 11 0.6612 -1.3576
3 -16 12 -0.1889 -3.4286
3 -16 13 1.1867 -3.8407
3 -15 0 -0.7705 -5.2012
3 -15 1 -1.6303 3.5901
3 -15 2 -2.3261 1.0596
3 -15 3 0.2123 -0.0503
3 -15 4 -1.7485 0.4168
3 -15 5 1.9433 -0.1673
3 -15 6 -1.3975 -0.3600
3 -15 7 2.4739 0.4449
3 -15 8 2.0316 0.1650
3 -15 9 -0.3005 0.6439
3 -15 10 -3.0460 1.1502
3 -15 11 1.0438 2.0777
3 -15 12 -1.4134 0.4161
3 -15 13 -0.2824 -2.5839
3 -15 14 -0.6857 -4.5350
3 -14 0 -1.5724 -4.3069
3 -14 1 0.7497 2.2856
3 -14 2 0.7022 -1.0729
3 -14 3 -0.0148 -1.2635
3 -14 4 -2.0855 0.6463
3 -14 5 0.4170 -0.5387
3 -14 6 0.2853 0.2269
3 -14 7 0.5567 -0.0554
3 -14 8 1.6606 -0.5426
3 -14 9 -2.0590 0.1134
3 -14 10 1.0167 0.2784
3 -14 11 1.7881 0.6136
3 -14 12 -2.0807 0.6739
3 -14 13 0.7808 1.4039
3 -14 14 1.8350 -2.2976
3 -14 15 -0.6113 -3.2624
3 -13 0 0.1018 -2.6322
3 -13 1 0.1156 2.4127
3 -13 2 0.5301 -0.8633
3 -13 3 0.3659 -0.5021
3 -13 4 0.2573 -0.0758
3 -13 5 -1.4967 -1.1096
3 -13 6 -1.8936 -0.3976
3 -13 7 0.3355 -0.1072
3 -13 8 0.2369 -0.7539
3 -13 9 0.0258 -0.7086
3 -13 10 -0.1785 -0.4940
3 -13 11 1.4278 0.5596
3 -13 12 -1.6773 0.1407
3 -13 13 -0.2828 0.4902
3 -13 14 0.7725 1.0599
3 -13 15 -0.4419 -2.5923
3 -12 0 1.2284 -2.3104
3 -12 1 -0.3544 1.7201
3 -12 2 -1.0968 -0.2753
3 -12 3 1.2653 0.0853
3 -12 4 3.5635 0.7643
3 -12 5 0.3884 0.0684
3 -12 6 -1.0237 0.9235
3 -12 7 -0.2394 -0.3557
3 -12 8 -1.5534 -0.8804
3 -12 9 -0.0162 -0.1483
3 -12 10 0.3407 0.2784
3 -12 11 -1.3813 -0.6574
3 -12 12 -0.1565 0.9108
3 -12 13 0.9803 0.1307
3 -12 14 0.7204 0.1800
3 -12 15 -0.9891 -3.6341
3 -11 0 0.8273 -2.1236
3 -11 1 -0.5567 1.4438
3 -11 2 -1.6052 -0.0795
3 -11 3 0.4315 -0.2094
3 -11 4 -1.9318 1.0972
3 -11 5 -0.6769 0.1302
3 -11 6 0.3927 0.4803
3 -11 7 0.9972 0.5683
3 -11 8 1.0280 0.4406
3 -11 9 1.4507 -0.3049
3 -11 10 -0.3140 -0.5657
3 -11 11 0.8213 -0.2412
3 -11 12 -0.8402 0.2793
3 -11 13 -0.8799 0.4750
3 -11 14 -0.6891 1.1629
3 -11 15 1.9858 -2.0357
3 -11 16 0.5075 -3.2525
3 -10 0 -2.0574 -1.5788
3 -10 1 2.7780 1.2071
3 -10 2 -0.6700 -0.1208
3 -10 3 1.9014 -1.0539
3 -10 4 -0.6529 0.1861
3 -10 5 1.2017 -0.9264
3 -10 6 1.8029 0.6407
3 -10 7 -0.5159 0.6542
3 -10 8 0.8343 -0.0822
3 -10 9 -2.2503 0.5503
3 -10 10 -0.2443 -0.6582
3 -10 11 2.8785 -0.1003
3 -10 12 -0.7230 -0.0926
3 -10 13 0.1465 0.5989
3 -10 14 -0.3490 -0.1272
3 -10 15 2.2200 0.5521
3 -10 16 1.4688 -2.6349
3 -9 0 0.7253 -1.9889
3 -9 1 -0.7398 1.1665
3 -9 2 -1.8970 -0.0723
3 -9 3 -0.9920 -1.1180
3 -9 4 2.7387 0.2827
3 -9 5 -2.5682 -0.5580
3 -9 6 -0.3772 0.0683
3 -9 7 -0.6844 -0.3096
3 -9 8 -0.3738 0.5410
3 -9 9 0.9740 0.1297
3 -9 10 0.4915 -0.2369
3 -9 11 -1.4700 -0.0946
3 -9 12 1.0743 -0.4209
3 -9 13 -1.6641 0.9104
3 -9 14 0.4449 0.4197
3 -9 15 -1.9835 0.2182
3 -9 16 1.4255 -2.4404
3 -8 0 1.9419 -2.0712
3 -8 1 -2.9548 1.2179
3 -8 2 1.8328 0.5544
3 -8 3 -1.3805 -0.9041
3 -8 4 -1.6707 0.5503
3 -8 5 -1.2995 -0.2807
3 -8 6 -1.3484 -0.1561
3 -8 7 -1.0481 -0.6251
3 -8 8 2.1296 0.2356
3 -8 9 -1.8091 0.2328
3 -8 10 -1.1321 0.0548
3 -8 11 2.9004 -0.2744
3 -8 12 -0.9841 -0.2048
3 -8 13 0.0921 0.6331
3 -8 14 0.2654 0.9479
3 -8 15 0.1725 -0.2407
3 -8 16 2.1348 -3.0619
3 -7 0 -3.2165 -1.8679
3 -7 1 0.7912 1.5480
3 -7 2 0.1113 0.5699
3 -7 3 4.6587 -1.2402
3 -7 4 -0.6527 0.7372
3 -7 5 1.1599 -0.0694
3 -7 6 0.9785 -0.2043
3 -7 7 -0.4645 -0.1503
3 -7 8 0.0905 0.2674
3 -7 9 -0.9568 0.3278
3 -7 10 -0.7350 -0.2263
3 -7 11 -0.8262 -0.3405
3 -7 12 1.2194 -0.8161
3 -7 13 0.2135 0.5635
3 -7 14 -2.6262 1.4380
3 -7 15 0.9601 0.6354
3 -7 16 -2.1475 -4.0455
3 -6 0 1.6851 -1.4006
3 -6 1 -3.2128 1.4881
3 -6 2 0.2911 0.6543
3 -6 3 2.4411 -0.8304
3 -6 4 1.2433 0.6874
3 -6 5 0.7830 0.0182
3 -6 6 1.5721 -0.2263
3 -6 7 0.6697 0.0456
3 -6 8 -0.5622 -0.0492
3 -6 9 0.5835 0.1889
3 -6 10 1.5235 0.0371
3 -6 11 -3.8470 0.0932
3 -6 12 1.8285 -1.3025
3 -6 13 -1.0234 -0.5712
3 -6 14 0.1812 1.6223
3 -6 15 -1.0346 -0.8356
3 -5 0 6.1586 -1.4268
3 -5 1 -1.7087 0.8677
3 -5 2 -3.6238 0.4019
3 -5 3 -5.6410 -1.1325
3 -5 4 3.8443 1.2764
3 -5 5 -1.0881 -0.5074
3 -5 6 -1.3831 0.1884
3 -5 7 -0.5156 -0.0533
3 -5 8 3.4964 -0.1989
3 -5 9 -0.2977 -0.0299
3 -5 10 1.5636 0.4816
3 -5 11 0.6390 -0.1072
3 -5 12 -0.0326 -1.5227
3 -5 13 1.6116 0.0343
3 -5 14 2.1046 1.9850
3 -5 15 -0.6766 -3.3404
3 -4 0 0.8020 -1.3286
3 -4 1 6.5252 0.3907
3 -4 2 -12.5201 0.2262
3 -4 3 9.3390 -0.8838
3 -4 4 -3.5991 1.0674
3 -4 5 -4.4007 -0.7387
3 -4 6 1.8748 0.2286
3 -4 7 -2.8783 -0.0512
3 -4 8 -0.7030 -0.2150
3 -4 9 -0.3095 0.5666
3 -4 10 0.1453 1.2381
3 -4 11 2.2732 0.1048
3 -4 12 -1.7675 -0.6847
3 -4 13 0.6746 0.1933
3 -4 14 -2.2733 0.3466
3 -4 15 4.5604 -2.6379
3 -3 0 -14.4688 -1.3237
3 -3 1 20.7328 0.5142
3 -3 2 -3.4612 0.3661
3 -3 3 -3.7510 -1.1679
3 -3 4 3.6409 1.0437
3 -3 5 1.7303 -0.6578
3 -3 6 1.1453 0.4449
3 -3 7 1.2522 -0.2397
3 -3 8 -2.0135 -0.4485
3 -3 9 -1.9939 0.3757
3 -3 10 1.0654 0.5554
3 -3 11 -2.7810 -0.1338
3 -3 12 -0.8823 -0.3840
3 -3 13 -0.7507 0.4043
3 -3 14 1.7794 -0.1890
3 -2 0 2.1759 -1.1631
3 -2 1 -10.7809 1.1225
3 -2 2 6.5650 0.4888
3 -2 3 -0.9388 -1.5183
3 -2 4 1.1418 1.1579
3 -2 5 -0.1702 -0.3500
3 -2 6 -1.7154 0.4636
3 -2 7 0.9342 -0.4857
3 -2 8 1.0881 -0.8496
3 -2 9 -2.9278 0.0047
3 -2 10 1.3358 0.6453
3 -2 11 3.4652 -0.0658
3 -2 12 -1.3739 0.7625
3 -2 13 -1.4489 1.0379
3 -2 14 -0.7663 -4.0421
3 -1 0 -11.6774 -1.2140
3 -1 1 12.6470 1.1625
3 -1 2 -4.7343 0.5516
3 -1 3 -7.9094 -1.8852
3 -1 4 1.9986 1.5002
3 -1 5 1.1126 -0.6145
3 -1 6 -2.3747 0.3409
3 -1 7 2.0758 -0.2985
3 -1 8 1.6496 -0.5888
3 -1 9 0.6768 0.4817
3 -1 10 -2.9648 -0.4870
3 -1 11 2.6874 -0.3270
3 -1 12 -0.0078 -0.8016
3 -1 13 -1.2005 -1.0589
3 0 0 -9.9501 -2.0070
3 0 1 2.8807 1.1575
3 0 2 4.1192 0.4054
3 0 3 5.6916 -1.5025
3 0 4 -1.9366 1.4373
3 0 5 0.2755 -0.5420
3 0 6 2.4983 0.5288
3 0 7 -0.4176 0.1277
3 0 8 -0.3663 -0.5080
3 0 9 0.0479 -0.6403
3 0 10 -0.4636 -0.1029
3 0 11 0.1322 0.7051
3 0 12 2.1519 0.5208
3 0 13 -1.3101 -0.3367
3 1 0 -0.6770 -1.5933
3 1 1 1.7535 1.3672
3 1 2 -1.8430 0.2665
3 1 3 -3.1049 -1.2948
3 1 4 0.3621 1.0741
3 1 5 -2.4527 -0.9169
3 1 6 1.9092 0.8135
3 1 7 -2.8352 0.6746
3 1 8 2.8092 -0.6126
3 1 9 0.9244 0.1005
3 1 10 -3.9923 0.9423
3 1 11 1.6636 0.3612
3 1 12 1.6953 -1.6276
3 2 0 -1.7678 -1.1060
3 2 1 -4.7816 0.5107
3 2 2 2.7371 0.5717
3 2 3 -0.7773 -1.0762
3 2 4 0.0568 0.7482
3 2 5 -3.0205 -0.7080
3 2 6 0.4330 1.0571
3 2 7 -2.0820 0.2785
3 2 8 0.9618 -0.3321
3 2 9 -0.6109 0.2765
3 2 10 1.9367 0.5270
3 2 11 -3.4370 -2.4404
3 2 12 -0.7266 -0.0416
3 3 0 -5.9735 -0.8838
3 3 1 1.0195 0.3615
3 3 2 1.6185 0.4270
3 3 3 -0.2077 -0.8030
3 3 4 4.8927 0.3931
3 3 5 -0.1401 -0.6338
3 3 6 -0.1588 0.2217
3 3 7 0.4600 0.2771
3 3 8 1.1505 -0.5957
3 3 9 -2.6982 0.9194
3 3 10 1.3847 -1.4537
3 3 11 2.1145 2.6489
3 4 0 1.8691 -0.2630
3 4 1 1.9731 -0.1948
3 4 2 2.8160 1.0741
3 4 3 -4.9493 -0.8599
3 4 4 1.2125 0.3036
3 4 5 -2.7067 -0.9575
3 4 6 0.8081 0.2866
3 4 7 0.6741 -0.3408
3 4 8 -0.1003 -0.1399
3 4 9 -0.7694 0.0527
3 4 10 0.2994 0.6524
3 5 0 -1.2476 -0.0451
3 5 1 -1.5323 -0.1688
3 5 2 -5.2129 1.0601
3 5 3 9.3900 -1.2834
3 5 4 -1.7058 0.3782
3 5 5 1.8970 -0.5179
3 5 6 -1.7958 0.2725
3 5 7 1.9990 -0.4573
3 5 8 0.6703 0.5585
3 5 9 0.2767 -1.0280
3 6 0 0.2720 0.4024
3 6 1 0.5035 -0.4203
3 6 2 -4.3733 0.8773
3 6 3 -1.9132 -0.7591
3 6 4 -0.1518 1.2361
3 6 5 1.0642 -0.4342
3 6 6 -2.5320 0.1452
3 6 7 -0.5590 -0.2594
3 6 8 -0.2911 0.3877
3 7 0 0.6951 0.1347
3 7 1 1.1342 -0.7736
3 7 2 3.1771 1.3828
3 7 3 -2.3231 -0.0789
3 7 4 0.8676 0.6985
3 7 5 3.0526 -0.4171
3 7 6 -1.0701 -0.3314
3 7 7 -0.2832 1.4859
3 8 0 0.5587 0.1799
3 8 1 -1.1807 -0.2050
3 8 2 2.1060 1.1577
3 8 3 -2.7962 -0.4792
3 8 4 -1.3487 0.2779
3 8 5 -1.8683 0.6865
3 8 6 1.1800 0.1020
3 9 0 -1.4676 0.7872
3 9 1 0.0979 -1.6959
3 9 2 0.6748 -0.3563
3 9 3 1.6511 -2.3147
3 9 4 3.2824 2.4741
3 9 5 -0.1646 -2.4200
3 10 0 1.2193 0.6963
3 10 1 -0.7807 -1.6886
3 10 2 -1.9319 -0.4826
3 10 3 -2.3296 1.0971
3 10 4 2.3367 0.1440
3 11 0 0.5252 1.9884
3 11 1 1.2864 0.9022
3 11 2 1.7482 0.9308
3 12 0 0.0059 5.5369
3 12 1 0.3631 2.6989
4 -17 4 3.8915 -3.1125
4 -17 5 2.2439 -1.9232
4 -17 6 0.6918 -3.2419
4 -17 7 -2.4287 -2.5868
4 -17 8 0.4743 -1.6919
4 -17 9 3.3664 -0.3778
4 -17 10 -1.3321 -0.4961
4 -16 1 2.3231 -0.3228
4 -16 2 1.1504 -0.3315
4 -16 3 1.0722 -0.3717
4 -16 4 -2.4280 1.8457
4 -16 5 -1.8012 2.8448
4 -16 6 3.0807 0.9957
4 -16 7 0.5977 1.0612
4 -16 8 -5.1287 1.3936
4 -16 9 0.4520 1.1923
4 -16 10 -1.0291 -0.8120
4 -16 11 2.8608 0.6431
4 -16 12 3.1139 0.4465
4 -15 0 0.0687 1.1950
4 -15 1 1.0265 3.2355
4 -15 2 -1.8824 0.2936
4 -15 3 -1.4866 0.2167
4 -15 4 0.5052 -0.2951
4 -15 5 1.3582 1.1613
4 -15 6 -1.1073 -0.9738
4 -15 7 1.8520 0.4733
4 -15 8 2.3287 -0.1122
4 -15 9 -2.7584 0.1007
4 -15 10 1.6119 -0.2745
4 -15 11 -0.6929 0.5322
4 -15 12 3.4982 -0.6219
4 -15 13 1.1413 1.5508
4 -14 0 -2.0302 -2.7962
4 -14 1 0.1767 0.5677
4 -14 2 1.7501 -1.5664
4 -14 3 -0.7915 -0.6324
4 -14 4 0.8125 -0.6852
4 -14 5 0.1824 0.7481
4 -14 6 -1.1911 -0.4773
4 -14 7 -2.0719 -0.0058
4 -14 8 4.8174 -0.4373
4 -14 9 -2.1762 0.0500
4 -14 10 -0.5442 0.4836
4 -14 11 -4.6438 -1.0036
4 -14 12 1.1538 -0.2705
4 -14 13 1.2209 0.0582
4 -14 14 3.2829 2.1303
4 -13 0 1.4503 -1.6051
4 -13 1 -1.1875 1.1233
4 -13 2 -0.2906 -0.7555
4 -13 3 -0.3509 0.4707
4 -13 4 -0.0918 -1.2141
4 -13 5 -2.3112 0.0920
4 -13 6 0.8541 -0.8088
4 -13 7 -0.8082 0.0078
4 -13 8 -1.2941 -0.2265
4 -13 9 0.9733 0.3967
4 -13 10 0.5204 -0.2598
4 -13 11 -0.9724 0.1951
4 -13 12 0.6942 -1.7507
4 -13 13 -2.2487 -0.3373
4 -13 14 -0.6141 0.6324
4 -12 0 -1.6436 -0.6587
4 -12 1 -0.0852 1.5843
4 -12 2 4.2867 -0.4628
4 -12 3 -3.7797 0.6619
4 -12 4 2.8734 -0.9477
4 -12 5 -0.2197 0.4238
4 -12 6 1.8580 -0.3775
4 -12 7 0.9475 0.4289
4 -12 8 -1.6262 -0.0732
4 -12 9 0.7164 -0.1582
4 -12 10 0.5361 0.1493
4 -12 11 -2.1407 -0.3723
4 -12 12 1.6142 -0.2105
4 -12 13 0.4035 -0.8256
4 -12 14 0.3470 0.3998
4 -12 15 -2.6398 2.9276
4 -11 0 1.7933 -1.5539
4 -11 1 -0.4882 1.1460
4 -11 2 -0.3285 -0.5357
4 -11 3 0.2418 1.5034
4 -11 4 -1.2636 0.0134
4 -11 5 0.0955 0.6521
4 -11 6 -1.8598 -0.2752
4 -11 7 -0.6475 0.1416
4 -11 8 0.2935 0.2149
4 -11 9 1.9348 0.4641
4 -11 10 1.9293 0.5048
4 -11 11 0.1539 0.8683
4 -11 12 -0.7780 -0.0423
4 -11 13 1.1865 -2.2162
4 -11 14 -0.7506 -1.9751
4 -11 15 3.4593 2.2008
4 -10 0 -0.3563 -2.2358
4 -10 1 -1.1210 1.2045
4 -10 2 1.2027 -1.0182
4 -10 3 1.9208 1.3996
4 -10 4 1.2968 0.0044
4 -10 5 0.3262 0.3989
4 -10 6 1.7120 -0.3016
4 -10 7 0.8874 -0.3586
4 -10 8 0.5908 0.2177
4 -10 9 -0.8449 -0.0679
4 -10 10 -4.7371 0.2956
4 -10 11 0.5595 0.9236
4 -10 12 2.3083 0.3039
4 -10 13 0.8160 -0.8873
4 -10 14 -2.3764 -1.2747
4 -10 15 1.8470 1.4511
4 -9 0 -1.2301 -2.3052
4 -9 1 -1.2171 0.8389
4 -9 2 0.4463 -1.8683
4 -9 3 -2.3280 0.3031
4 -9 4 0.6241 -0.8854
4 -9 5 -1.1991 0.8311
4 -9 6 -2.3201 -0.6785
4 -9 7 0.9576 -0.0748
4 -9 8 -1.3446 -0.4287
4 -9 9 2.4498 -0.3372
4 -9 10 1.6206 -0.2305
4 -9 11 -1.8324 0.8213
4 -9 12 -0.7939 1.2312
4 -9 13 1.1559 0.0057
4 -9 14 0.7540 -2.1766
4 -9 15 -4.1873 1.1667
4 -8 0 3.6879 -1.7771
4 -8 1 -1.3707 1.7971
4 -8 2 -2.3501 -1.8210
4 -8 3 0.7678 0.2407
4 -8 4 -2.4469 -0.4701
4 -8 5 -0.0797 0.8195
4 -8 6 0.0090 -0.4069
4 -8 7 -0.4574 0.1850
4 -8 8 -0.7300 -0.1598
4 -8 9 0.2662 -0.8078
4 -8 10 1.1231 -0.4374
4 -8 11 -0.6357 0.3120
4 -8 12 -1.1442 0.8264
4 -8 13 1.0517 0.0307
4 -8 14 0.4636 -1.6963
4 -8 15 2.4503 0.7243
4 -7 0 -1.6001 -1.3416
4 -7 1 3.3891 2.0967
4 -7 2 0.3493 -1.1952
4 -7 3 0.5258 0.6692
4 -7 4 1.7407 -0.6622
4 -7 5 3.1667 0.6590
4 -7 6 -1.4854 -0.5364
4 -7 7 -1.0713 0.7181
4 -7 8 -0.8767 -0.0061
4 -7 9 -0.5809 -0.4355
4 -7 10 0.2496 -0.2394
4 -7 11 -2.9253 0.2691
4 -7 12 1.4821 0.7472
4 -7 13 1.0228 0.2546
4 -7 14 1.4545 -1.0850
4 -7 15 -8.0399 -0.0645
4 -6 0 0.3915 -1.5378
4 -6 1 -2.2680 1.6432
4 -6 2 3.9404 -0.8042
4 -6 3 -3.0361 0.9052
4 -6 4 3.0841 -0.2480
4 -6 5 -0.7086 0.6384
4 -6 6 -0.9847 -0.4764
4 -6 7 3.9947 1.0847
4 -6 8 -0.9402 0.0423
4 -6 9 1.9362 -0.5339
4 -6 10 0.6198 -0.4329
4 -6 11 -0.4617 -0.2610
4 -6 12 -1.4278 0.3377
4 -6 13 -3.9354 0.7422
4 -6 14 6.7274 0.4532
4 -6 15 -1.5517 -0.7669
4 -5 0 0.1653 -1.9317
4 -5 1 -3.1699 1.5205
4 -5 2 4.5866 -0.8651
4 -5 3 -3.7401 0.9473
4 -5 4 -3.4673 -0.6823
4 -5 5 1.0719 0.0335
4 -5 6 2.6063 -0.6798
4 -5 7 -0.8047 0.8084
4 -5 8 -0.4030 -0.0293
4 -5 9 -0.4085 -0.2948
4 -5 10 0.4238 -0.1982
4 -5 11 2.7897 -0.2540
4 -5 12 -0.9553 -0.4074
4 -5 13 -0.9185 -0.1121
4 -5 14 -1.2569 -1.5985
4 -4 0 2.3167 -1.9232
4 -4 1 -0.6031 1.0436
4 -4 2 -4.5800 -1.7354
4 -4 3 4.0007 0.5907
4 -4 4 1.2462 -0.7108
4 -4 5 -2.6220 0.2371
4 -4 6 -2.6452 -0.0814
4 -4 7 0.5648 0.3667
4 -4 8 -0.8469 0.0898
4 -4 9 1.4863 0.1805
4 -4 10 -1.7002 0.0885
4 -4 11 2.3821 0.0779
4 -4 12 0.9984 0.2966
4 -4 13 3.1364 1.8325
4 -4 14 -6.5767 -3.3019
4 -3 0 4.1194 -1.5739
4 -3 1 -9.7162 1.2374
4 -3 2 8.0061 -1.1811
4 -3 3 -2.3662 1.1636
4 -3 4 -0.4980 -0.6323
4 -3 5 1.1728 0.3669
4 -3 6 0.7584 -0.4260
4 -3 7 -0.0874 -0.0288
4 -3 8 1.0710 0.4054
4 -3 9 -1.0038 0.3662
4 -3 10 -2.0086 -0.7051
4 -3 11 -1.8146 -0.4447
4 -3 12 -1.0943 1.0932
4 -3 13 1.9018 -0.0461
4 -2 0 10.6152 -1.0730
4 -2 1 -3.1454 1.6979
4 -2 2 -0.8428 -1.0257
4 -2 3 4.8973 1.0356
4 -2 4 -3.0072 -0.9407
4 -2 5 -0.7424 0.3031
4 -2 6 -0.7459 -0.4595
4 -2 7 -0.5673 -0.0966
4 -2 8 -0.9521 1.0333
4 -2 9 3.5158 0.0877
4 -2 10 -0.9574 -0.9538
4 -2 11 -0.0898 0.5934
4 -2 12 -1.1453 1.2091
4 -2 13 -1.1003 -3.7844
4 -1 0 -5.7994 -1.2761
4 -1 1 3.7199 1.4971
4 -1 2 -4.3326 -1.2473
4 -1 3 1.6302 1.0787
4 -1 4 1.0371 -0.3571
4 -1 5 1.6944 0.4897
4 -1 6 -1.0444 -0.7546
4 -1 7 -0.3472 -0.0739
4 -1 8 -1.5801 0.2853
4 -1 9 0.1569 -0.5639
4 -1 10 3.3318 -0.9476
4 -1 11 -3.0910 0.9940
4 -1 12 3.9963 -0.6115
4 -1 13 -0.5401 -2.8583
4 0 0 9.5902 -1.3693
4 0 1 -4.3503 1.2304
4 0 2 -2.8654 -1.3831
4 0 3 2.1756 1.0083
4 0 4 1.5385 -0.4004
4 0 5 2.0221 0.1935
4 0 6 0.0812 -0.8717
4 0 7 0.0296 -0.0134
4 0 8 0.7509 0.6155
4 0 9 -1.2067 -0.0662
4 0 10 -0.3360 -0.1972
4 0 11 0.6717 1.3471
4 0 12 -1.8941 -2.6756
4 1 0 4.6464 -1.3667
4 1 1 -4.4463 0.9444
4 1 2 0.5812 -1.2434
4 1 3 1.1826 1.0519
4 1 4 -2.9305 -0.0459
4 1 5 1.0843 0.3390
4 1 6 -0.4215 -0.7123
4 1 7 0.2493 0.6822
4 1 8 0.1776 0.0472
4 1 9 2.0174 -0.5523
4 1 10 -1.1052 0.6968
4 1 11 1.0873 -0.4841
4 2 0 0.5972 -1.1629
4 2 1 2.5852 1.2126
4 2 2 -3.3385 -0.9939
4 2 3 -3.6838 0.7084
4 2 4 -1.0044 -0.0595
4 2 5 3.4858 0.2209
4 2 6 -1.3757 0.2985
4 2 7 0.4321 0.1051
4 2 8 0.4820 -0.3757
4 2 9 -2.5953 0.4192
4 2 10 -0.2090 1.4763
4 2 11 -2.0238 -4.2509
4 3 0 5.5587 -0.8497
4 3 1 1.7758 1.1278
4 3 2 -0.0352 -0.9876
4 3 3 -0.3070 0.3408
4 3 4 -0.5771 -0.2408
4 3 5 -3.0351 0.8670
4 3 6 0.5608 -0.4970
4 3 7 -2.3823 -0.3886
4 3 8 -1.0019 -0.0512
4 3 9 4.0151 0.6843
4 3 10 1.5310 -0.7794
4 4 0 -0.3115 -0.9642
4 4 1 1.6033 0.8912
4 4 2 3.0341 -0.9700
4 4 3 1.3040 -0.1587
4 4 4 -0.4878 0.3595
4 4 5 1.5555 0.0718
4 4 6 1.4695 -0.7413
4 4 7 0.8960 0.4503
4 4 8 -1.4068 0.0428
4 4 9 -0.7047 -1.0029
4 5 0 -3.3193 -1.3684
4 5 1 0.9351 1.2411
4 5 2 0.1264 -1.1259
4 5 3 1.4537 0.1789
4 5 4 -0.8431 -0.1727
4 5 5 2.0921 -0.6528
4 5 6 -0.1474 0.1974
4 5 7 -1.2599 0.5331
4 5 8 0.2293 -1.3083
4 6 0 0.6254 -0.7712
4 6 1 -2.7779 1.2644
4 6 2 -0.1688 -0.6113
4 6 3 -1.2717 -0.1094
4 6 4 -3.0885 -0.2622
4 6 5 0.9132 0.4750
4 6 6 -0.2465 0.5361
4 6 7 -0.1207 -0.8633
4 7 0 -1.7150 -1.5396
4 7 1 -0.0037 1.9093
4 7 2 1.3400 -0.6972
4 7 3 1.0091 -0.0158
4 7 4 -0.2170 0.6873
4 7 5 1.2916 0.5684
4 7 6 2.2289 -0.6306
4 8 0 0.7202 -1.2137
4 8 1 -0.6888 1.8838
4 8 2 -0.5016 -0.0406
4 8 3 -0.9648 0.2804
4 8 4 -1.1275 0.7180
4 8 5 -1.5695 -0.8818
4 9 0 0.7935 -3.0179
4 9 1 1.0602 2.2526
4 9 2 1.1984 0.1379
4 9 3 2.1506 -0.4229
4 9 4 -2.2716 -5.0200
4 10 0 -0.5501 -3.9422
4 10 1 -0.0220 0.0201
4 10 2 -0.5598 -2.8233
4 11 0 0.4154 -2.3353
4 11 1 -2.0860 -1.2115
5 -17 6 2.8413 3.5328
5 -17 7 -1.4865 2.2109
5 -17 8 -1.6759 3.4493
5 -16 2 1.2733 5.0403
5 -16 3 4.1481 3.6841
5 -16 4 -0.2893 4.3749
5 -16 5 -2.4346 0.6146
5 -16 6 0.6700 -1.2182
5 -16 7 2.0390 -1.2147
5 -16 8 -0.9389 2.9462
5 -16 9 -1.1010 5.1145
5 -16 10 2.6052 3.7327
5 -16 11 0.5149 3.7111
5 -15 0 3.3492 8.7322
5 -15 1 -0.0859 -0.3556
5 -15 2 -0.4758 -0.7513
5 -15 3 -2.3321 -0.2088
5 -15 4 1.6139 -0.8524
5 -15 5 -0.8787 0.5863
5 -15 6 -0.3073 -0.6628
5 -15 7 -2.0604 -0.3303
5 -15 8 3.3077 -1.6712
5 -15 9 0.4441 -1.3881
5 -15 10 0.6486 -0.9880
5 -15 11 3.5456 2.9515
5 -15 12 1.0348 5.0304
5 -14 0 -1.8160 3.9851
5 -14 1 -0.6572 -2.8984
5 -14 2 2.6678 -0.4312
5 -14 3 0.0849 -0.8611
5 -14 4 -2.3580 -0.8328
5 -14 5 2.6034 0.2584
5 -14 6 0.7862 -0.0689
5 -14 7 0.8849 -0.3906
5 -14 8 -3.4495 -1.3442
5 -14 9 -3.1669 -0.4176
5 -14 10 -0.5424 -0.1991
5 -14 11 0.4912 -1.9466
5 -14 12 -0.7620 2.5421
5 -14 13 -0.2822 3.6087
5 -13 0 0.8260 1.8371
5 -13 1 -1.8084 -2.3812
5 -13 2 -2.0552 1.6489
5 -13 3 -0.5375 0.2892
5 -13 4 2.0684 -0.3902
5 -13 5 -1.4397 0.2415
5 -13 6 -0.9485 0.6641
5 -13 7 -1.8374 0.1408
5 -13 8 1.5005 0.3225
5 -13 9 0.6572 -0.7684
5 -13 10 -0.8620 -1.2890
5 -13 11 -0.4430 -0.3358
5 -13 12 -2.9273 -0.9580
5 -13 13 -0.6198 4.0322
5 -12 0 0.1972 1.8134
5 -12 1 -0.1477 -1.9755
5 -12 2 0.9401 1.1659
5 -12 3 0.9567 0.0162
5 -12 4 -3.0767 -0.5288
5 -12 5 0.5303 -0.0455
5 -12 6 2.8726 0.6636
5 -12 7 1.2384 0.0609
5 -12 8 1.7137 0.1297
5 -12 9 0.1328 -0.0223
5 -12 10 -0.8235 0.2264
5 -12 11 -0.2569 -1.3396
5 -12 12 1.4074 -0.8942
5 -12 13 -1.8463 2.6277
5 -12 14 -2.4304 3.5210
5 -11 0 -0.0655 2.5462
5 -11 1 2.7471 -1.3257
5 -11 2 -0.7121 1.3473
5 -11 3 2.1698 0.3167
5 -11 4 -1.9740 -0.6764
5 -11 5 1.5816 0.1950
5 -11 6 -1.8334 0.2512
5 -11 7 -2.8684 0.2111
5 -11 8 -1.3257 1.0355
5 -11 9 1.8702 0.5762
5 -11 10 2.5250 0.4217
5 -11 11 2.1222 -1.1223
5 -11 12 0.0587 0.0381
5 -11 13 1.8996 -1.7615
5 -11 14 -0.1947 2.3079
5 -10 0 -0.0563 2.2906
5 -10 1 0.6727 -1.7302
5 -10 2 -1.3339 0.7092
5 -10 3 2.0509 0.2447
5 -10 4 -0.7707 -0.2582
5 -10 5 0.6481 0.0083
5 -10 6 3.7307 0.3593
5 -10 7 2.2268 -0.1133
5 -10 8 -2.8543 -0.0057
5 -10 9 -1.3654 0.3031
5 -10 10 -0.9453 0.3931
5 -10 11 -0.6839 -0.5625
5 -10 12 -1.0565 0.5211
5 -10 13 -1.7941 -1.1671
5 -10 14 2.6378 1.9462
5 -9 0 -0.6440 1.4758
5 -9 1 -1.2259 -2.2760
5 -9 2 -0.8292 0.5242
5 -9 3 -0.9014 -0.2146
5 -9 4 -1.2644 -0.6299
5 -9 5 -1.2564 -0.4013
5 -9 6 -2.2430 -0.2223
5 -9 7 1.9989 -0.3139
5 -9 8 0.2005 -0.4087
5 -9 9 -0.6011 0.6585
5 -9 10 1.5764 -0.0928
5 -9 11 2.2043 0.0437
5 -9 12 -0.5757 0.2437
5 -9 13 -1.8140 -0.8341
5 -9 14 -0.9150 1.7231
5 -8 0 0.4758 2.0240
5 -8 1 -0.2279 -1.2545
5 -8 2 -0.5432 0.7336
5 -8 3 2.3044 0.4002
5 -8 4 0.5600 -0.4557
5 -8 5 -2.4056 -0.5620
5 -8 6 -1.5112 0.0824
5 -8 7 1.3680 -0.3692
5 -8 8 0.8242 -0.2915
5 -8 9 -2.6173 0.4668
5 -8 10 -0.5850 -0.2500
5 -8 11 0.4158 -0.5628
5 -8 12 1.2122 0.3492
5 -8 13 -1.1541 -0.7178
5 -8 14 1.3574 1.9300
5 -7 0 -0.3904 2.2234
5 -7 1 2.8553 -1.4485
5 -7 2 1.3194 0.6910
5 -7 3 -0.2989 0.8726
5 -7 4 -0.7914 -0.4336
5 -7 5 2.4862 0.3057
5 -7 6 0.7598 0.1765
5 -7 7 -1.3825 -0.1598
5 -7 8 -0.3657 0.1240
5 -7 9 -0.6044 0.0321
5 -7 10 -0.1638 0.2127
5 -7 11 0.6131 -0.2003
5 -7 12 1.0212 -0.0639
5 -7 13 -1.3547 -0.3424
5 -7 14 -1.4007 1.9640
5 -6 0 0.6636 1.5902
5 -6 1 -1.8938 -1.9062
5 -6 2 -0.2501 0.9672
5 -6 3 -3.9797 0.7310
5 -6 4 4.1411 -0.1606
5 -6 5 1.3049 0.4188
5 -6 6 -0.2452 0.1364
5 -6 7 -1.1195 -0.1140
5 -6 8 4.4342 -0.1591
5 -6 9 -1.6558 0.5870
5 -6 10 -0.1336 0.5662
5 -6 11 0.8221 -0.3754
5 -6 12 0.3639 -0.9610
5 -6 13 0.3157 -0.7619
5 -6 14 -0.9964 2.1815
5 -5 0 -0.2601 1.0236
5 -5 1 2.4005 -1.7965
5 -5 2 -0.7271 0.4629
5 -5 3 1.3795 0.3902
5 -5 4 -0.7073 -0.5719
5 -5 5 -4.6410 0.5383
5 -5 6 1.3712 0.0597
5 -5 7 -0.9410 -0.4824
5 -5 8 0.9360 -0.3866
5 -5 9 -1.5956 -0.0454
5 -5 10 -1.5487 0.4796
5 -5 11 -1.4356 -0.5380
5 -5 12 1.7290 0.1056
5 -5 13 0.2260 1.1580
5 -4 0 -7.5400 1.4260
5 -4 1 1.2627 -1.5531
5 -4 2 3.7428 0.2580
5 -4 3 -1.6400 0.1540
5 -4 4 0.8372 -1.2500
5 -4 5 1.3590 0.5332
5 -4 6 0.3885 0.0823
5 -4 7 1.0809 -0.4148
5 -4 8 -0.3320 -0.0763
5 -4 9 1.3827 0.4122
5 -4 10 2.9074 0.1692
5 -4 11 -1.6102 -0.3980
5 -4 12 -0.1645 -0.4664
5 -4 13 1.3570 3.3476
5 -3 0 4.4888 1.5148
5 -3 1 -6.2167 -1.2632
5 -3 2 -0.4771 0.2431
5 -3 3 -2.1052 0.4237
5 -3 4 0.1542 -0.7728
5 -3 5 1.1993 0.7166
5 -3 6 0.6202 0.2316
5 -3 7 -3.3210 -0.5983
5 -3 8 0.6128 0.2531
5 -3 9 -0.0652 0.3505
5 -3 10 -0.7954 0.0962
5 -3 11 0.8544 0.1957
5 -3 12 -0.2606 0.7287
5 -2 0 1.6304 1.7198
5 -2 1 3.0929 -1.4186
5 -2 2 -2.1617 0.3939
5 -2 3 -2.1451 0.9072
5 -2 4 0.3300 -0.8031
5 -2 5 0.2376 0.9123
5 -2 6 1.0649 -0.2367
5 -2 7 0.9490 -0.3821
5 -2 8 -2.3188 0.4820
5 -2 9 1.0369 -0.1626
5 -2 10 -0.1008 -0.2491
5 -2 11 -1.7694 -0.4139
5 -2 12 -1.2086 2.1826
5 -1 0 7.0026 1.6192
5 -1 1 2.0122 -1.1732
5 -1 2 8.4888 0.2402
5 -1 3 -4.2193 0.6985
5 -1 4 -2.0780 -0.8364
5 -1 5 -1.9362 0.5349
5 -1 6 -0.4345 -0.2234
5 -1 7 2.0368 -0.1619
5 -1 8 0.0339 0.4040
5 -1 9 -1.7368 -0.8528
5 -1 10 2.6956 0.3122
5 -1 11 0.5135 0.1570
5 0 0 -7.1031 1.2854
5 0 1 4.5724 -1.2483
5 0 2 1.1488 -0.0803
5 0 3 0.5287 0.3458
5 0 4 -1.4985 -0.8590
5 0 5 0.9044 0.7406
5 0 6 -1.1802 -0.2481
5 0 7 0.8457 0.0809
5 0 8 0.0088 -0.9720
5 0 9 -1.2033 -0.4735
5 0 10 -1.1658 0.9798
5 0 11 1.8343 1.0955
5 1 0 -22.3558 1.4158
5 1 1 3.3325 -0.9098
5 1 2 4.0905 0.0165
5 1 3 6.0521 0.1327
5 1 4 3.1680 -0.8772
5 1 5 -2.0029 0.5888
5 1 6 -0.3320 0.1270
5 1 7 2.0458 -0.0723
5 1 8 0.4207 -0.3789
5 1 9 0.0817 1.7593
5 1 10 3.4183 -0.2772
5 2 0 0.0160 1.1882
5 2 1 -15.1791 -0.7771
5 2 2 -8.2536 0.4263
5 2 3 4.6023 0.3327
5 2 4 1.4141 -0.6384
5 2 5 2.2817 0.6638
5 2 6 -1.4389 0.6126
5 2 7 -1.0026 -0.2311
5 2 8 -2.3739 1.0710
5 2 9 -1.8402 -0.6690
5 3 0 16.4631 0.7969
5 3 1 9.5190 -0.2576
5 3 2 -6.8700 0.7153
5 3 3 -8.0979 0.4079
5 3 4 -8.2386 -0.8540
5 3 5 -0.0768 0.5027
5 3 6 2.5891 -0.0459
5 3 7 3.1562 -0.6101
5 3 8 -0.8979 0.1246
5 3 9 -0.3624 0.8812
5 4 0 -4.7069 0.6822
5 4 1 1.4405 -0.5677
5 4 2 9.2959 -0.0137
5 4 3 5.6681 0.5670
5 4 4 5.9892 -1.0234
5 4 5 -5.2801 0.4599
5 4 6 0.2147 -0.6141
5 4 7 -1.0892 -0.2681
5 4 8 4.1418 0.6109
5 5 0 -0.6675 0.0337
5 5 1 -1.2687 -1.1216
5 5 2 -0.8890 -0.3966
5 5 3 -3.2586 0.5866
5 5 4 3.5368 -0.7695
5 5 5 -2.0272 0.3512
5 5 6 1.1807 -0.6063
5 5 7 -0.7182 0.0124
5 6 0 -1.1855 0.4609
5 6 1 -0.6040 -0.6376
5 6 2 -2.3297 -0.2719
5 6 3 2.1588 1.1697
5 6 4 1.7726 -0.8317
5 6 5 -2.8513 0.5287
5 6 6 -1.8387 0.0005
5 7 0 0.4984 0.5531
5 7 1 -0.8812 0.1521
5 7 2 -1.2544 0.6463
5 7 3 -0.9041 -0.5076
5 7 4 2.1754 0.3122
5 7 5 1.3986 0.3681
5 8 0 -0.0750 0.4234
5 8 1 0.3942 2.5200
5 8 2 -1.6143 -1.8770
5 8 3 -1.2029 1.2540
5 9 0 0.8657 -0.8459
5 9 1 2.3376 -1.2961
5 9 2 -0.7117 -0.7053
5 10 0 -0.9973 -2.8617
5 10 1 0.6187 -0.5829
6 -16 3 2.4967 2.6551
6 -16 4 1.8008 2.7225
6 -16 5 1.1154 2.5129
6 -16 6 1.2647 2.0968
6 -16 7 -1.4278 3.6589
6 -16 8 5.1678 1.6631
6 -16 9 -0.5862 1.3221
6 -15 0 0.1744 -0.1009
6 -15 1 4.1966 1.2653
6 -15 2 -2.4767 -0.8628
6 -15 3 -0.2431 -2.6154
6 -15 4 -0.2941 -0.3664
6 -15 5 -0.2974 -2.5150
6 -15 6 -2.9440 -0.9609
6 -15 7 -0.9329 -1.0020
6 -15 8 -3.8973 -0.3182
6 -15 9 8.0079 0.2566
6 -15 10 2.9439 1.3211
6 -15 11 2.9048 -0.6026
6 -14 0 -1.8657 -1.3580
6 -14 1 -0.3970 0.5184
6 -14 2 -0.8676 -0.2552
6 -14 3 -0.1509 -0.5902
6 -14 4 1.5973 0.6542
6 -14 5 0.9343 -1.8755
6 -14 6 -0.5065 -0.8075
6 -14 7 3.9293 -0.5777
6 -14 8 -3.6988 -1.2951
6 -14 9 -3.8532 -0.3768
6 -14 10 -3.4408 -0.3740
6 -14 11 -0.3690 0.3358
6 -14 12 3.9559 -1.2533
6 -13 0 -0.6279 -0.6333
6 -13 1 0.5304 0.8177
6 -13 2 0.1331 0.1875
6 -13 3 -1.4736 -0.2122
6 -13 4 0.2494 1.2589
6 -13 5 -0.4642 0.0259
6 -13 6 -1.6686 1.2728
6 -13 7 1.0610 -0.7132
6 -13 8 -0.6489 0.5964
6 -13 9 -0.8652 -0.3103
6 -13 10 1.7434 -0.1009
6 -13 11 -0.7844 -1.2485
6 -13 12 -5.7832 -1.1563
6 -12 0 0.3529 -0.2320
6 -12 1 1.3786 0.3883
6 -12 2 -1.8181 0.2216
6 -12 3 0.0546 -0.4551
6 -12 4 0.0611 1.2856
6 -12 5 -0.0054 -0.2645
6 -12 6 1.7700 -0.1137
6 -12 7 0.2598 -0.0788
6 -12 8 2.2955 0.8527
6 -12 9 0.5694 -0.3876
6 -12 10 -0.9024 0.9007
6 -12 11 -0.8876 0.8372
6 -12 12 0.5414 0.1552
6 -12 13 -1.1027 -0.7661
6 -11 0 0.0970 0.1180
6 -11 1 0.1461 0.0689
6 -11 2 1.9877 0.8004
6 -11 3 0.2186 -0.8137
6 -11 4 2.6681 1.1151
6 -11 5 -1.9385 -0.1806
6 -11 6 -1.4753 0.5232
6 -11 7 -2.4414 -0.3078
6 -11 8 2.8609 -0.3737
6 -11 9 -0.8022 0.3946
6 -11 10 0.4737 0.1748
6 -11 11 2.4772 1.8364
6 -11 12 1.6139 -1.2958
6 -11 13 1.7619 0.1848
6 -10 0 0.5400 0.7240
6 -10 1 -1.1192 -0.2368
6 -10 2 -1.7303 -0.2758
6 -10 3 -2.3690 -1.4772
6 -10 4 3.2872 1.0913
6 -10 5 0.6906 -0.1557
6 -10 6 0.6458 0.1574
6 -10 7 -0.1674 0.0015
6 -10 8 2.7225 0.0691
6 -10 9 -3.0008 -0.3781
6 -10 10 -1.8039 -0.4234
6 -10 11 -1.6862 1.1133
6 -10 12 0.8197 -0.9550
6 -10 13 -1.4035 0.3893
6 -9 0 0.1689 0.8479
6 -9 1 0.3045 -0.5155
6 -9 2 1.9508 0.3359
6 -9 3 -1.6138 -1.3207
6 -9 4 -3.6606 0.7705
6 -9 5 -0.2743 -1.0824
6 -9 6 1.4944 0.4584
6 -9 7 -3.1796 -0.3690
6 -9 8 0.7029 -0.0769
6 -9 9 5.3976 -0.6733
6 -9 10 -0.1144 -0.5060
6 -9 11 -1.4763 1.5428
6 -9 12 -1.2608 -0.7527
6 -9 13 0.5234 1.0431
6 -8 0 0.1437 0.6972
6 -8 1 1.3795 -0.1621
6 -8 2 -1.4451 0.3038
6 -8 3 0.9696 -1.1843
6 -8 4 -0.2211 0.9869
6 -8 5 2.8329 -0.7376
6 -8 6 -0.6498 0.3894
6 -8 7 -3.3342 -0.0858
6 -8 8 -3.4920 0.2311
6 -8 9 1.4371 -0.5491
6 -8 10 -0.7577 -0.3785
6 -8 11 0.9843 1.3593
6 -8 12 0.8739 -1.1311
6 -8 13 3.7369 1.4474
6 -7 0 -2.1228 0.4900
6 -7 1 0.6512 0.0314
6 -7 2 -0.6398 1.1641
6 -7 3 3.2091 -0.7130
6 -7 4 -1.1834 0.8426
6 -7 5 -1.6300 -0.3183
6 -7 6 1.4799 0.2953
6 -7 7 4.3054 0.3757
6 -7 8 0.1713 -0.1243
6 -7 9 1.1147 -0.2821
6 -7 10 -2.3403 -0.5114
6 -7 11 -0.2116 0.8130
6 -7 12 -3.9880 -1.5743
6 -7 13 5.4950 1.9151
6 -6 0 -2.8888 0.3368
6 -6 1 1.0445 0.4274
6 -6 2 0.9946 0.7880
6 -6 3 -0.4240 -1.6603
6 -6 4 -1.3216 1.0574
6 -6 5 0.8310 -0.3678
6 -6 6 -0.7219 0.4544
6 -6 7 -0.4342 0.0865
6 -6 8 -0.9115 0.1932
6 -6 9 0.7078 -0.3333
6 -6 10 2.8364 0.3123
6 -6 11 1.4411 0.8019
6 -6 12 -2.2150 -0.8243
6 -5 0 0.1284 -0.0151
6 -5 1 3.7672 -0.1261
6 -5 2 -4.4549 0.8719
6 -5 3 0.4446 -1.6703
6 -5 4 0.8255 1.3019
6 -5 5 -1.2899 -0.8894
6 -5 6 -1.7461 0.4262
6 -5 7 0.1904 0.3666
6 -5 8 -3.3062 -0.0006
6 -5 9 -0.0279 -0.3038
6 -5 10 -1.1831 -0.0669
6 -5 11 -0.7577 -0.8790
6 -5 12 2.0804 1.2919
6 -4 0 -2.4737 -0.1083
6 -4 1 -3.4200 0.2207
6 -4 2 0.4097 0.8738
6 -4 3 7.9816 -1.4010
6 -4 4 0.9372 0.7388
6 -4 5 -0.4733 -1.2214
6 -4 6 2.1730 0.0389
6 -4 7 1.2148 0.0687
6 -4 8 1.5336 -0.2766
6 -4 9 1.0535 -0.1246
6 -4 10 -0.0337 -0.0337
6 -4 11 1.1173 -0.2069
6 -4 12 2.5707 3.3741
6 -3 0 -2.5928 -0.0731
6 -3 1 1.7895 0.0067
6 -3 2 -6.6905 0.6636
6 -3 3 -1.3992 -0.9386
6 -3 4 -2.3427 1.0542
6 -3 5 0.5290 -0.8650
6 -3 6 1.9301 0.3019
6 -3 7 -2.9502 0.6571
6 -3 8 0.6081 0.0710
6 -3 9 -0.5129 0.2363
6 -3 10 -0.4432 -0.4584
6 -3 11 -1.0711 0.6022
6 -2 0 1.2837 0.2939
6 -2 1 4.4936 -0.2977
6 -2 2 -1.7575 0.9804
6 -2 3 -0.0388 -0.5613
6 -2 4 0.8095 1.2368
6 -2 5 0.0429 -0.9910
6 -2 6 -0.4892 0.2106
6 -2 7 0.5086 0.4466
6 -2 8 1.2671 -0.4299
6 -2 9 -0.9414 -0.0465
6 -2 10 -2.2097 -0.9305
6 -2 11 1.4681 3.8203
6 -1 0 6.1012 0.4293
6 -1 1 -2.7266 -0.6770
6 -1 2 -0.0877 0.9946
6 -1 3 -2.1256 -0.9904
6 -1 4 1.3743 1.1897
6 -1 5 -0.8449 -1.1366
6 -1 6 -2.0522 0.4878
6 -1 7 -0.6256 0.5283
6 -1 8 0.6616 -0.0416
6 -1 9 0.8687 -0.3932
6 -1 10 -0.9513 0.3020
6 0 0 -2.7464 -0.2268
6 0 1 0.4102 -0.1887
6 0 2 -0.1084 0.6030
6 0 3 -0.2182 -0.8461
6 0 4 1.1845 0.5111
6 0 5 -2.8230 -1.2745
6 0 6 -1.0344 0.3447
6 0 7 -0.0924 -0.1528
6 0 8 1.0203 -0.5620
6 0 9 1.2030 -0.7005
6 0 10 -1.5924 3.4559
6 1 0 1.8864 -0.2241
6 1 1 6.8369 -0.3360
6 1 2 2.5099 0.9338
6 1 3 2.3006 -1.1133
6 1 4 4.1891 0.7951
6 1 5 2.4703 -0.6577
6 1 6 4.9802 0.1056
6 1 7 -1.7279 0.4410
6 1 8 0.3504 -0.5973
6 1 9 1.7404 1.1936
6 2 0 1.5782 0.2506
6 2 1 -7.6662 -0.2342
6 2 2 -3.0833 0.7674
6 2 3 -1.8488 -0.3976
6 2 4 -4.0380 1.0811
6 2 5 2.4539 -0.6713
6 2 6 -2.3383 0.9762
6 2 7 -1.5047 -0.5378
6 2 8 -2.2054 0.3050
6 3 0 -1.9148 0.2046
6 3 1 -5.1741 -0.7899
6 3 2 3.9383 1.2625
6 3 3 -6.6955 -0.2224
6 3 4 -2.2980 0.7519
6 3 5 -1.6596 -0.0479
6 3 6 -0.5437 -0.7920
6 3 7 -0.8241 1.1906
6 4 0 3.5865 0.3119
6 4 1 4.9384 -1.2902
6 4 2 7.3446 0.6992
6 4 3 0.1784 -0.6370
6 4 4 5.9526 0.8340
6 4 5 0.9715 -2.0160
6 4 6 0.9020 1.7111
6 5 0 -0.2023 0.4366
6 5 1 -1.2315 -1.7943
6 5 2 -3.6304 -0.1014
6 5 3 0.1774 -0.1833
6 5 4 -2.6744 -0.6444
6 5 5 1.0775 0.7593
6 6 0 1.9070 1.5641
6 6 1 -3.9235 -1.2460
6 6 2 2.2592 0.4861
6 6 3 1.0085 -0.8110
6 6 4 -1.0847 0.6913
6 7 0 1.1356 3.1364
6 7 1 -2.2006 0.3975
6 7 2 0.0198 -0.2038
6 7 3 -0.7488 0.6492
6 8 0 -2.5677 2.7659
6 8 1 3.2941 -1.2149
6 8 2 0.2308 3.5190
6 9 0 0.6657 2.6752
7 -15 1 1.3608 -0.5883
7 -15 2 1.4266 -2.3269
7 -15 3 -1.0245 -0.7820
7 -15 4 -3.0340 -1.4065
7 -15 5 -1.6595 -0.7979
7 -15 6 -2.9255 -1.9460
7 -15 7 1.1208 -1.7769
7 -15 8 3.1380 -3.3751
7 -14 0 -0.9663 -6.3122
7 -14 1 -2.8265 1.0556
7 -14 2 1.1761 -1.3207
7 -14 3 0.0006 -0.4778
7 -14 4 1.9277 -1.2040
7 -14 5 1.6374 -0.0984
7 -14 6 0.0677 -0.0280
7 -14 7 -3.0597 1.1487
7 -14 8 -1.0335 -2.6814
7 -14 9 1.3589 -4.4198
7 -14 10 3.6601 -3.6696
7 -13 0 0.1437 -3.0808
7 -13 1 0.4713 2.3140
7 -13 2 0.0086 0.4912
7 -13 3 1.3299 0.3381
7 -13 4 -3.3249 0.1929
7 -13 5 1.5347 0.7601
7 -13 6 -0.7569 -0.1483
7 -13 7 -0.1307 0.5182
7 -13 8 0.2373 1.4065
7 -13 9 -2.3565 0.8083
7 -13 10 -1.8569 -2.7400
7 -13 11 0.0638 -3.8093
7 -12 0 -0.8129 -2.3444
7 -12 1 -0.6750 3.0053
7 -12 2 0.9542 -0.1057
7 -12 3 -0.8708 0.6594
7 -12 4 0.5038 0.6078
7 -12 5 -1.2135 0.0389
7 -12 6 1.4295 -0.1399
7 -12 7 0.9736 1.1894
7 -12 8 -0.8027 0.5214
7 -12 9 1.4448 0.3596
7 -12 10 0.2952 1.0146
7 -12 11 -0.1934 -2.2601
7 -11 0 -2.7516 -2.5083
7 -11 1 0.7155 1.2090
7 -11 2 3.5905 -1.9200
7 -11 3 0.8983 0.5018
7 -11 4 0.3055 -0.2872
7 -11 5 0.1102 0.0995
7 -11 6 0.9065 -0.1338
7 -11 7 -1.4411 -0.4067
7 -11 8 -1.5913 1.1064
7 -11 9 1.5180 0.5335
7 -11 10 1.2684 1.1313
7 -11 11 0.4088 -1.5686
7 -10 0 4.6711 -1.7325
7 -10 1 -6.0137 1.0334
7 -10 2 -2.4280 -1.6914
7 -10 3 -1.0303 1.0211
7 -10 4 2.4870 -0.9010
7 -10 5 -0.6499 -0.2448
7 -10 6 -0.4834 -0.7632
7 -10 7 2.7059 0.4748
7 -10 8 -1.1936 -0.1615
7 -10 9 -2.1062 -0.2165
7 -10 10 0.4209 0.4718
7 -10 11 -0.9229 -1.7764
7 -9 0 0.1261 -0.4794
7 -9 1 -0.4033 0.9961
7 -9 2 0.2470 -0.7538
7 -9 3 -1.3508 1.0776
7 -9 4 0.8145 -0.4994
7 -9 5 -0.4642 0.1647
7 -9 6 -0.6674 -0.7466
7 -9 7 3.3773 -0.1759
7 -9 8 -1.0665 -0.7903
7 -9 9 0.4737 0.5888
7 -9 10 -1.5454 0.4291
7 -9 11 0.8117 -1.0873
7 -8 0 3.4086 -1.1279
7 -8 1 0.5387 0.7044
7 -8 2 4.7936 -0.8710
7 -8 3 -2.5171 1.0966
7 -8 4 -4.7440 -0.0399
7 -8 5 0.4391 0.0200
7 -8 6 -0.3583 0.0063
7 -8 7 -2.3246 -0.3968
7 -8 8 0.9383 0.3212
7 -8 9 0.4807 0.8124
7 -8 10 0.5038 0.5068
7 -8 11 1.3610 -1.4876
7 -7 0 1.6862 -1.3665
7 -7 1 -2.1253 0.8080
7 -7 2 -0.9733 -0.6778
7 -7 3 1.7296 0.4850
7 -7 4 4.1509 0.2061
7 -7 5 2.3036 0.6080
7 -7 6 -1.6753 -0.1324
7 -7 7 1.5730 -0.3745
7 -7 8 0.7625 -0.1901
7 -7 9 -1.4226 -0.2954
7 -7 10 1.7998 0.5059
7 -7 11 -1.3990 -1.5810
7 -6 0 1.4756 -1.4136
7 -6 1 0.7480 0.9694
7 -6 2 -5.2804 -1.0311
7 -6 3 2.8715 0.0522
7 -6 4 -1.8604 0.0269
7 -6 5 -2.3104 0.4731
7 -6 6 -1.4855 -0.0339
7 -6 7 1.9972 0.0772
7 -6 8 -0.6830 -0.3655
7 -6 9 -2.7742 0.5289
7 -6 10 3.2195 0.6829
7 -6 11 -2.3821 -2.2278
7 -5 0 -3.6266 -0.9074
7 -5 1 5.4794 1.3997
7 -5 2 1.7350 -0.8422
7 -5 3 -3.1698 -0.3001
7 -5 4 -0.6296 0.1370
7 -5 5 1.3065 0.2765
7 -5 6 -0.6961 -0.1896
7 -5 7 -0.1206 0.0422
7 -5 8 -1.0016 0.1245
7 -5 9 -1.4388 0.4619
7 -5 10 -0.4386 1.2014
7 -5 11 0.8353 -1.9892
7 -4 0 -1.5449 -0.8026
7 -4 1 0.7538 0.8780
7 -4 2 6.9278 -0.8886
7 -4 3 -1.5187 0.0013
7 -4 4 0.4588 0.5106
7 -4 5 1.9345 -0.3033
7 -4 6 2.5134 -0.4726
7 -4 7 -1.0877 -0.2334
7 -4 8 3.0758 -0.7158
7 -4 9 0.9966 0.0395
7 -4 10 0.2450 -0.7011
7 -3 0 0.3675 -0.8314
7 -3 1 -16.2852 0.8702
7 -3 2 3.6640 -0.7876
7 -3 3 0.5935 0.3848
7 -3 4 0.1007 -0.0448
7 -3 5 -1.0489 -0.3415
7 -3 6 -1.1355 0.1857
7 -3 7 -1.1993 0.3979
7 -3 8 -0.4155 0.6004
7 -3 9 0.1699 0.9994
7 -3 10 0.1707 -3.1961
7 -2 0 6.4393 -0.6621
7 -2 1 3.6260 0.7845
7 -2 2 -2.9195 -0.7448
7 -2 3 -2.0085 0.4955
7 -2 4 -0.4707 0.2364
7 -2 5 2.1451 0.2847
7 -2 6 -0.0607 0.1749
7 -2 7 2.6042 -0.4472
7 -2 8 -0.4075 -0.8372
7 -2 9 -2.0625 0.9998
7 -1 0 -0.6516 -0.6735
7 -1 1 3.2745 0.8258
7 -1 2 1.1265 -0.7468
7 -1 3 -1.5514 0.5522
7 -1 4 -0.3840 0.0705
7 -1 5 -2.7909 0.4742
7 -1 6 -4.2694 0.1749
7 -1 7 1.6228 -1.5392
7 -1 8 -1.8846 1.8333
7 -1 9 0.6995 -2.9482
7 0 0 -0.5528 -0.4703
7 0 1 -1.7889 0.8935
7 0 2 -1.3845 -1.2098
7 0 3 1.5766 -0.5589
7 0 4 -2.9638 -0.1606
7 0 5 1.2789 0.5745
7 0 6 2.2488 -0.4013
7 0 7 1.5420 0.2746
7 0 8 -2.4039 -0.5913
7 1 0 1.0651 -0.3561
7 1 1 0.5918 1.0883
7 1 2 5.6205 -1.0220
7 1 3 8.5045 -0.6029
7 1 4 5.9304 -0.0017
7 1 5 -0.0792 0.2251
7 1 6 0.1019 -0.0974
7 1 7 -0.7703 -0.5854
7 2 0 0.0268 -0.0034
7 2 1 -8.4868 1.8072
7 2 2 -0.7719 -0.6959
7 2 3 -8.0900 -0.0470
7 2 4 -3.1002 0.2550
7 2 5 -0.7309 0.1487
7 2 6 0.7370 -0.3159
7 3 0 -0.0978 -0.3954
7 3 1 0.5597 0.9639
7 3 2 -8.3323 0.5262
7 3 3 -4.8016 0.3555
7 3 4 2.3442 0.9183
7 3 5 2.6355 0.0627
7 3 6 -2.6635 -1.4143
7 4 0 -3.5282 -0.9778
7 4 1 22.5234 0.8118
7 4 2 -3.7120 -0.2796
7 4 3 14.0931 -0.7309
7 4 4 -9.2562 0.2602
7 4 5 -0.1442 -0.3016
7 5 0 -7.1260 -1.8592
7 5 1 1.8066 -0.3599
7 5 2 -9.7054 -1.1533
7 5 3 4.2150 -0.5937
7 6 0 -0.9277 -0.8707
7 6 1 -2.8974 0.5683
7 6 2 11.1735 0.3073
7 7 0 3.0863 0.8304
7 7 1 -11.9276 4.6242
8 -14 1 2.2769 -4.3490
8 -14 2 -1.1391 0.1292
8 -14 3 1.5974 -1.3488
8 -14 4 -1.3548 -1.9966
8 -14 5 -1.3285 -0.5999
8 -14 6 1.6335 -2.1014
8 -14 7 5.0834 -1.7349
8 -13 0 0.0200 -0.1060
8 -13 1 -0.5003 0.9501
8 -13 2 2.0182 1.9602
8 -13 3 -1.4384 1.6331
8 -13 4 1.7288 -0.0943
8 -13 5 -0.3649 1.6242
8 -13 6 -1.5372 -0.3313
8 -13 7 -4.0002 -0.7922
8 -13 8 0.6418 -2.3147
8 -12 0 -0.6884 1.2057
8 -12 1 2.3496 0.3325
8 -12 2 -2.7199 0.8303
8 -12 3 0.4128 0.7404
8 -12 4 -1.6427 0.5363
8 -12 5 0.4841 2.0652
8 -12 6 0.4428 1.0109
8 -12 7 0.4081 0.7141
8 -12 8 2.3060 -0.4145
8 -12 9 -1.1835 -1.2904
8 -11 0 0.3202 0.5453
8 -11 1 -0.3180 -2.0068
8 -11 2 -0.3185 -1.1778
8 -11 3 5.5242 0.2326
8 -11 4 -0.5404 -2.2550
8 -11 5 -1.5613 0.2105
8 -11 6 1.4787 0.8178
8 -11 7 -1.2218 1.0321
8 -11 8 -0.5757 0.8769
8 -11 9 -1.2859 -1.4950
8 -10 0 -0.7839 0.2797
8 -10 1 1.1677 -0.9387
8 -10 2 -1.4962 0.6634
8 -10 3 0.1149 0.2364
8 -10 4 -1.2723 -2.1111
8 -10 5 0.3091 0.4653
8 -10 6 0.4609 -1.1249
8 -10 7 -1.3958 0.3782
8 -10 8 0.9436 0.2234
8 -10 9 -0.1169 -0.1954
8 -10 10 -1.0544 -2.1570
8 -9 0 -0.3982 -0.0770
8 -9 1 -1.0878 -0.3303
8 -9 2 -1.9466 0.7027
8 -9 3 -0.6853 1.3556
8 -9 4 3.1108 -0.5959
8 -9 5 2.5660 -0.5658
8 -9 6 -0.4593 -0.1489
8 -9 7 0.6032 0.0411
8 -9 8 -1.9602 0.2367
8 -9 9 0.2586 0.7100
8 -9 10 -1.8318 -2.0618
8 -8 0 -0.0810 -0.5154
8 -8 1 1.7915 -0.3016
8 -8 2 0.3973 0.4833
8 -8 3 -1.6564 1.0208
8 -8 4 -3.1588 -1.0233
8 -8 5 -2.1491 0.7624
8 -8 6 -0.8995 0.4303
8 -8 7 2.4861 -0.8831
8 -8 8 2.4615 0.4336
8 -8 9 0.6214 0.4240
8 -8 10 -1.3402 -0.9032
8 -7 0 -3.0360 -0.4115
8 -7 1 0.9828 -0.6558
8 -7 2 2.3459 -0.2623
8 -7 3 0.8705 0.6227
8 -7 4 1.0030 -0.6811
8 -7 5 2.6055 1.0587
8 -7 6 -0.9519 -0.3814
8 -7 7 -0.7104 -0.5536
8 -7 8 0.4103 0.0329
8 -7 9 -0.5693 0.5794
8 -7 10 0.6142 -2.2331
8 -6 0 3.5915 -0.2940
8 -6 1 -3.2321 0.0099
8 -6 2 -1.1399 -0.1664
8 -6 3 -1.6660 0.4727
8 -6 4 2.0493 -0.7796
8 -6 5 -4.2943 0.6262
8 -6 6 -0.2396 -0.3840
8 -6 7 -2.7627 0.2600
8 -6 8 0.2251 0.1371
8 -6 9 3.1233 -1.1686
8 -5 0 3.9832 0.6009
8 -5 1 -2.1892 -0.5090
8 -5 2 0.9974 -0.2763
8 -5 3 -0.0753 0.3343
8 -5 4 0.1605 -0.7239
8 -5 5 2.1420 0.1657
8 -5 6 2.7312 0.6449
8 -5 7 -1.6917 0.5900
8 -5 8 -2.1831 0.9243
8 -5 9 1.3642 -2.4240
8 -4 0 -3.6605 0.1221
8 -4 1 2.9194 -0.0431
8 -4 2 3.0755 0.1466
8 -4 3 0.7177 0.9660
8 -4 4 -0.7684 -1.1207
8 -4 5 -0.3543 -0.0712
8 -4 6 1.4133 -0.6629
8 -4 7 -0.2048 0.3574
8 -4 8 0.5898 1.1853
8 -4 9 1.8642 -2.3940
8 -3 0 0.3531 -0.1794
8 -3 1 0.8244 -0.2601
8 -3 2 -5.5196 -0.2824
8 -3 3 -0.6266 1.5024
8 -3 4 0.7126 -0.8844
8 -3 5 2.0914 -0.1778
8 -3 6 -0.6771 -0.2202
8 -3 7 0.4615 -0.7519
8 -3 8 -0.3238 0.5445
8 -2 0 -2.5702 -0.2984
8 -2 1 5.0653 -0.7486
8 -2 2 -3.2576 -0.4743
8 -2 3 2.5640 1.9259
8 -2 4 -1.9192 -1.6322
8 -2 5 -2.0808 1.2716
8 -2 6 2.3162 -0.0212
8 -2 7 -1.4759 0.6415
8 -2 8 3.5694 -2.0083
8 -1 0 -2.0073 -0.0468
8 -1 1 0.7845 -0.7043
8 -1 2 -3.5137 0.7114
8 -1 3 -0.5614 0.3397
8 -1 4 0.3481 -1.1831
8 -1 5 -1.6788 1.5798
8 -1 6 -2.1609 -0.4580
8 -1 7 -0.5948 -0.5996
8 0 0 -0.5513 -0.1298
8 0 1 2.9078 0.3651
8 0 2 3.0794 -0.8542
8 0 3 0.8033 0.4368
8 0 4 -3.7413 -0.7096
8 0 5 1.1181 0.5833
8 0 6 2.6561 -0.2339
8 1 0 2.8866 -0.1878
8 1 1 -1.9729 -0.4707
8 1 2 8.2169 -0.1443
8 1 3 2.7296 0.1274
8 1 4 0.9381 -0.9668
8 1 5 3.2201 -0.5277
8 2 0 -6.2529 -0.2438
8 2 1 -6.4786 0.3257
8 2 2 -1.9901 -0.1440
8 2 3 -4.9976 1.6359
8 2 4 2.7681 -1.5118
8 3 0 -3.4774 -1.0275
8 3 1 -0.3217 0.4686
8 3 2 0.1387 1.0375
8 3 3 -1.0942 0.2753
8 4 0 8.4271 -2.0898
8 4 1 0.5438 0.7154
8 4 2 -0.8755 -0.6878
8 5 0 5.1291 -3.3503
8 5 1 -6.4975 -0.1478
8 6 0 -0.4646 -1.3500
9 -13 1 -3.3187 2.4633
9 -13 2 2.8448 2.2459
9 -13 3 0.9931 1.9690
9 -13 4 0.8215 5.2274
9 -12 0 -0.1977 4.9561
9 -12 1 5.1892 -2.1989
9 -12 2 -3.9607 -0.6264
9 -12 3 -3.2415 -2.2740
9 -12 4 0.2423 3.5876
9 -12 5 1.0624 3.6708
9 -12 6 0.9185 4.4280
9 -11 0 0.4201 3.6358
9 -11 1 -2.0903 -0.9668
9 -11 2 3.0951 -0.4137
9 -11 3 0.4424 -2.0601
9 -11 4 1.4428 -1.2015
9 -11 5 0.5198 -2.4131
9 -11 6 -3.0177 1.2841
9 -11 7 0.7981 3.5628
9 -10 0 -0.5748 1.9813
9 -10 1 -0.7810 -0.2596
9 -10 2 1.7478 0.8737
9 -10 3 -0.5551 -0.7849
9 -10 4 -2.6179 0.5050
9 -10 5 0.1768 -0.4381
9 -10 6 3.0222 -0.8761
9 -10 7 -1.4512 2.8244
9 -9 0 -1.1411 1.2389
9 -9 1 0.2859 -0.3655
9 -9 2 0.3318 1.0293
9 -9 3 -1.1204 -0.3224
9 -9 4 2.5390 0.4417
9 -9 5 -0.3903 -0.3499
9 -9 6 0.9681 -1.0417
9 -9 7 -0.0810 0.5891
9 -9 8 1.0302 3.7809
9 -8 0 -0.6017 1.2683
9 -8 1 1.7089 -0.3327
9 -8 2 -0.7871 0.7384
9 -8 3 -1.5743 -0.6316
9 -8 4 0.5933 0.7688
9 -8 5 -1.9492 0.0818
9 -8 6 0.5441 -0.3427
9 -8 7 -0.1580 -3.0695
9 -8 8 3.2023 3.5319
9 -7 0 0.3773 0.9721
9 -7 1 -2.4259 -0.9849
9 -7 2 0.2680 0.7275
9 -7 3 3.2654 -1.1824
9 -7 4 -1.6754 0.5299
9 -7 5 -0.5012 0.9876
9 -7 6 1.5816 0.4175
9 -7 7 -0.3034 -0.8895
9 -6 0 1.6337 1.2208
9 -6 1 -1.2783 -0.3374
9 -6 2 -0.4131 0.2476
9 -6 3 -0.5327 -1.0084
9 -6 4 1.0624 -0.0235
9 -6 5 -3.5206 0.6576
9 -6 6 -0.8927 -0.4380
9 -6 7 1.7894 2.1493
9 -5 0 -1.0273 1.1209
9 -5 1 2.7307 -0.3347
9 -5 2 0.1707 0.7065
9 -5 3 0.9790 -0.5490
9 -5 4 0.4310 -0.0777
9 -5 5 1.9225 0.1336
9 -5 6 -1.2866 -1.4368
9 -5 7 2.3834 3.1728
9 -4 0 -1.1420 0.9718
9 -4 1 -0.4402 -0.6108
9 -4 2 -1.1448 0.8112
9 -4 3 -1.4373 -0.5648
9 -4 4 2.4229 1.3193
9 -4 5 0.2567 -0.9586
9 -4 6 -1.5849 1.1349
9 -3 0 -2.5690 0.5301
9 -3 1 1.9761 -0.5382
9 -3 2 0.1759 0.8809
9 -3 3 0.5245 -0.7386
9 -3 4 0.3490 -0.8370
9 -3 5 -0.5585 -1.0958
9 -3 6 2.8172 2.8961
9 -2 0 2.3606 0.2058
9 -2 1 0.1903 -0.2451
9 -2 2 -2.3750 0.8052
9 -2 3 -0.7479 -0.8922
9 -2 4 1.1551 1.1662
9 -2 5 -1.8009 -0.3253
9 -1 0 -1.7599 0.2387
9 -1 1 -6.8360 -0.7796
9 -1 2 3.2146 1.0863
9 -1 3 -0.4788 -0.4067
9 -1 4 -2.2162 0.0329
9 -1 5 2.2109 1.3037
9 0 0 12.5035 0.5892
9 0 1 -2.0937 0.6223
9 0 2 -0.0229 0.1302
9 0 3 -1.9742 -0.3143
9 0 4 3.5269 1.3279
9 1 0 -2.8084 2.8694
9 1 1 2.3676 -2.8020
9 1 2 4.4971 -0.4290
9 1 3 -0.9903 -0.2291
9 2 0 2.6340 1.5791
9 2 1 2.5089 -1.5922
9 2 2 -6.0625 0.4088
9 3 0 -4.7406 3.2557
9 3 1 5.4480 -0.3608
10 -10 0 1.3690 0.8859
10 -10 1 -0.1509 1.5096
10 -10 2 0.0750 0.2340
10 -10 3 0.9076 0.6778
10 -10 4 0.2074 1.2943
10 -9 0 -1.8189 -1.2312
10 -9 1 1.2050 0.1759
10 -9 2 -2.2283 -0.3411
10 -9 3 -0.1790 -0.4300
10 -9 4 -0.1930 0.9981
10 -8 0 0.1912 -1.2005
10 -8 1 1.7937 0.3548
10 -8 2 0.3453 -0.2016
10 -8 3 -1.4349 -0.8891
10 -8 4 0.9070 0.9951
10 -7 0 -0.0814 -0.7219
10 -7 1 -1.3602 1.1104
10 -7 2 1.2146 -0.4452
10 -7 3 0.1974 -0.4326
10 -7 4 -2.3732 1.0721
10 -6 0 0.8712 -0.5524
10 -6 1 -1.8295 0.1463
10 -6 2 1.2483 -0.3453
10 -6 3 -0.7766 -0.3163
10 -6 4 -0.9787 2.0381
10 -5 0 -1.1486 -0.4727
10 -5 1 2.2612 0.5250
10 -5 2 -0.2469 -0.6503
10 -5 3 2.9211 -0.2323
10 -5 4 -5.0035 2.1558
10 -4 0 0.8265 -0.2709
10 -4 1 -0.5378 0.6831
10 -4 2 -0.8588 -0.7893
10 -4 3 0.5715 -0.7324
10 -4 4 0.0429 2.7731
10 -3 0 1.0454 -0.3855
10 -3 1 0.3445 0.5083
10 -3 2 1.8445 -0.9539
10 -3 3 0.6120 0.5988
10 -2 0 -1.9388 0.0468
10 -2 1 -1.7638 -0.2429
10 -2 2 -1.8664 0.1296
10 -1 0 -2.9661 0.2156
10 -1 1 0.0333 1.0892
10 0 0 -0.0062 4.0372
0 0 0 0.0 0.0
;
_shelx_fab_checksum              10044
_olex2_submission_special_instructions 'No special instructions were received'
loop_
_space_group_symop_operation_xyz
'x, y, z'
'-x, -y, -z'
loop_
_atom_site_label
_atom_site_type_symbol
_atom_site_fract_x
_atom_site_fract_y
_atom_site_fract_z
_atom_site_U_iso_or_equiv
_atom_site_adp_type
_atom_site_occupancy
_atom_site_site_symmetry_order
_atom_site_calc_flag
_atom_site_refinement_flags_posn
_atom_site_refinement_flags_adp
_atom_site_refinement_flags_occupancy
_atom_site_disorder_assembly
_atom_site_disorder_group
Th1 Th 0.74704(4) 1.01075(3) 0.99339(3) 0.0171(2) Uani 1 1 d . U . . .
O3 O 0.2915(9) 0.8903(7) 0.8368(6) 0.0316(17) Uani 1 1 d . U . . .
O4 O 0.5429(9) 0.9385(6) 0.8374(6) 0.0303(17) Uani 1 1 d . U . . .
O7 O 0.9932(9) 1.1480(7) 1.0878(6) 0.0381(19) Uani 1 1 d . U . . .
O8 O 1.2431(8) 1.1674(6) 1.1205(6) 0.0335(18) Uani 1 1 d . U . . .
O9 O 0.8778(10) 0.9577(7) 1.1005(6) 0.0358(18) Uani 1 1 d . U . . .
O10 O 1.1282(10) 0.9788(8) 1.1358(7) 0.041(2) Uani 1 1 d . U . . .
O11 O 0.2903(9) 0.8298(6) 1.0024(7) 0.0352(18) Uani 1 1 d . U . . .
O12 O 0.5303(9) 0.8901(6) 1.0009(7) 0.0325(17) Uani 1 1 d . U . . .
N5 N 0.6147(15) 0.6272(11) 1.0083(12) 0.061(3) Uani 1 1 d . U . . .
N6 N 1.1327(17) 1.0053(14) 1.4225(11) 0.070(3) Uani 1 1 d . U . . .
N7 N 0.1675(15) 0.6441(10) 0.5288(10) 0.056(3) Uani 1 1 d . U . . .
N8 N 1.3598(14) 1.4765(10) 1.3638(10) 0.056(3) Uani 1 1 d . U . . .
C00F C 0.3991(13) 0.8803(9) 0.7940(8) 0.028(2) Uani 1 1 d . U . . .
C1 C 0.3551(14) 0.7917(10) 0.6847(9) 0.035(2) Uani 1 1 d . U . . .
C2 C 0.2022(16) 0.7300(11) 0.6244(10) 0.046(3) Uani 1 1 d . U . . .
H2 H 0.121512 0.748376 0.650586 0.055 Uiso 1 1 calc R U . . .
C3 C 0.4715(15) 0.7633(11) 0.6401(10) 0.043(3) Uani 1 1 d . U . . .
H3 H 0.575578 0.806024 0.675492 0.051 Uiso 1 1 calc R U . . .
C4 C 0.4339(14) 0.6736(10) 0.5450(9) 0.039(3) Uani 1 1 d . U . . .
H4 H 0.512011 0.653144 0.516802 0.047 Uiso 1 1 calc R U . . .
C5 C 0.2813(16) 0.6141(10) 0.4917(10) 0.041(3) Uani 1 1 d . U . . .
C6 C 1.2443(15) 1.5132(10) 1.3931(10) 0.040(3) Uani 1 1 d . U . . .
C7 C 1.0947(15) 1.4556(10) 1.3364(10) 0.041(3) Uani 1 1 d . U . . .
H7 H 1.016931 1.483700 1.355405 0.050 Uiso 1 1 calc R U . . .
C8 C 1.0568(16) 1.3573(11) 1.2523(11) 0.044(3) Uani 1 1 d . U . . .
H8 H 0.952895 1.317345 1.213998 0.052 Uiso 1 1 calc R U . . .
C9 C 1.1717(14) 1.3159(9) 1.2228(9) 0.032(2) Uani 1 1 d . U . . .
C10 C 1.3254(15) 1.3798(10) 1.2793(10) 0.042(3) Uani 1 1 d . U . . .
H10 H 1.405420 1.355411 1.258398 0.050 Uiso 1 1 calc R U . . .
C11 C 1.1334(12) 1.2021(9) 1.1358(9) 0.027(2) Uani 1 1 d . U . . .
C12 C 0.3241(17) 0.6415(12) 0.9909(14) 0.053(3) Uani 1 1 d . U . . .
H12 H 0.225398 0.647212 0.984730 0.064 Uiso 1 1 calc R U . . .
C13 C 0.4468(14) 0.7233(10) 1.0001(11) 0.038(2) Uani 1 1 d . U . . .
C14 C 0.5929(16) 0.7143(12) 1.0091(13) 0.049(3) Uani 1 1 d . U . . .
H14 H 0.677018 0.769068 1.015739 0.059 Uiso 1 1 calc R U . . .
C15 C 0.4872(17) 0.5473(12) 0.9976(15) 0.055(3) Uani 1 1 d . U . . .
C16 C 0.3423(17) 0.5545(11) 0.9905(14) 0.053(3) Uani 1 1 d . U . . .
H16 H 0.258775 0.500599 0.985623 0.063 Uiso 1 1 calc R U . . .
C17 C 0.4227(13) 0.8220(9) 1.0009(10) 0.030(2) Uani 1 1 d . U . . .
C18 C 0.8648(18) 0.9699(14) 1.2883(12) 0.054(3) Uani 1 1 d . U . . .
H18 H 0.773058 0.956964 1.242449 0.065 Uiso 1 1 calc R U . . .
C19 C 1.0062(13) 0.9693(10) 1.1559(9) 0.030(2) Uani 1 1 d . U . . .
C20 C 1.0010(16) 0.9779(12) 1.2594(10) 0.042(2) Uani 1 1 d . U . . .
C21 C 1.1324(19) 0.9950(15) 1.3301(12) 0.058(3) Uani 1 1 d . U . . .
H21 H 1.225124 0.999429 1.311754 0.069 Uiso 1 1 calc R U . . .
C22 C 0.999(2) 0.9965(16) 1.4475(12) 0.061(3) Uani 1 1 d . U . . .
C23 C 0.8641(19) 0.9809(15) 1.3841(12) 0.058(3) Uani 1 1 d . U . . .
H23 H 0.773623 0.977716 1.405123 0.069 Uiso 1 1 calc R U . . .
loop_
_atom_site_aniso_label
_atom_site_aniso_U_11
_atom_site_aniso_U_22
_atom_site_aniso_U_33
_atom_site_aniso_U_23
_atom_site_aniso_U_13
_atom_site_aniso_U_12
Th1 0.0188(2) 0.0140(2) 0.0181(3) 0.00662(16) 0.00657(15) 0.00687(15)
O3 0.024(3) 0.043(4) 0.024(3) 0.009(3) 0.005(3) 0.022(3)
O4 0.031(4) 0.032(4) 0.016(3) 0.004(3) 0.000(3) 0.011(3)
O7 0.020(3) 0.031(4) 0.032(4) 0.001(3) 0.003(3) -0.009(3)
O8 0.019(3) 0.031(4) 0.035(4) 0.004(3) 0.008(3) 0.009(3)
O9 0.041(4) 0.049(4) 0.031(4) 0.024(3) 0.018(3) 0.026(3)
O10 0.037(4) 0.058(5) 0.031(4) 0.026(3) 0.013(3) 0.013(3)
O11 0.035(4) 0.027(4) 0.056(4) 0.025(3) 0.017(3) 0.021(3)
O12 0.033(4) 0.025(3) 0.042(4) 0.020(3) 0.018(3) 0.002(3)
N5 0.045(5) 0.052(5) 0.092(6) 0.038(4) 0.020(4) 0.022(4)
N6 0.065(5) 0.096(6) 0.052(5) 0.043(4) 0.017(4) 0.024(5)
N7 0.051(5) 0.047(5) 0.041(5) 0.001(4) 0.010(4) 0.015(4)
N8 0.046(5) 0.045(5) 0.047(5) 0.001(4) 0.014(4) 0.012(4)
C00F 0.029(4) 0.032(4) 0.018(4) 0.006(3) 0.004(3) 0.018(3)
C1 0.036(4) 0.032(4) 0.028(4) 0.009(3) 0.008(3) 0.012(3)
C2 0.043(5) 0.042(5) 0.036(5) 0.005(4) 0.009(4) 0.018(4)
C3 0.035(5) 0.040(5) 0.034(5) 0.003(4) 0.016(4) 0.009(4)
C4 0.033(4) 0.034(4) 0.030(4) -0.002(4) 0.018(4) 0.011(4)
C5 0.044(5) 0.035(5) 0.031(4) 0.005(4) 0.014(4) 0.014(4)
C6 0.041(5) 0.032(4) 0.035(5) 0.006(4) 0.013(4) 0.014(4)
C7 0.034(4) 0.034(4) 0.039(5) 0.000(4) 0.010(4) 0.018(4)
C8 0.038(5) 0.037(5) 0.040(5) 0.004(4) 0.008(4) 0.018(4)
C9 0.034(4) 0.026(4) 0.029(4) 0.008(3) 0.010(3) 0.010(3)
C10 0.034(4) 0.033(4) 0.038(5) -0.001(4) 0.014(4) 0.015(4)
C11 0.026(4) 0.023(4) 0.027(4) 0.007(3) 0.011(3) 0.011(3)
C12 0.042(5) 0.040(5) 0.086(6) 0.037(4) 0.019(4) 0.015(4)
C13 0.033(4) 0.031(4) 0.063(5) 0.030(4) 0.018(4) 0.017(3)
C14 0.040(5) 0.043(5) 0.074(6) 0.034(4) 0.020(4) 0.019(4)
C15 0.043(5) 0.045(5) 0.087(6) 0.039(4) 0.018(5) 0.019(4)
C16 0.042(5) 0.037(5) 0.089(6) 0.039(4) 0.021(5) 0.012(4)
C17 0.032(4) 0.024(4) 0.044(4) 0.022(3) 0.011(3) 0.015(3)
C18 0.049(5) 0.080(6) 0.045(5) 0.036(4) 0.019(4) 0.026(4)
C19 0.033(4) 0.047(4) 0.027(4) 0.027(3) 0.016(3) 0.021(3)
C20 0.042(4) 0.063(5) 0.035(4) 0.033(4) 0.018(4) 0.019(4)
C21 0.059(5) 0.081(6) 0.042(5) 0.040(4) 0.012(4) 0.021(5)
C22 0.061(5) 0.088(6) 0.044(5) 0.040(4) 0.023(4) 0.026(5)
C23 0.056(5) 0.087(6) 0.043(5) 0.039(4) 0.025(4) 0.027(5)
loop_
_atom_type_symbol
_atom_type_description
_atom_type_scat_dispersion_real
_atom_type_scat_dispersion_imag
_atom_type_scat_source
C C 0.0033 0.0016 'International Tables Vol C Tables 4.2.6.8 and 6.1.1.4'
H H 0.0000 0.0000 'International Tables Vol C Tables 4.2.6.8 and 6.1.1.4'
N N 0.0061 0.0033 'International Tables Vol C Tables 4.2.6.8 and 6.1.1.4'
O O 0.0106 0.0060 'International Tables Vol C Tables 4.2.6.8 and 6.1.1.4'
Th Th -7.2400 8.8979 'International Tables Vol C Tables 4.2.6.8 and 6.1.1.4'
loop_
_geom_angle_atom_site_label_1
_geom_angle_atom_site_label_2
_geom_angle_atom_site_label_3
_geom_angle
_geom_angle_site_symmetry_1
_geom_angle_site_symmetry_3
_geom_angle_publ_flag
O3 Th1 O8 139.1(3) 2_677 2_777 y
O3 Th1 O11 75.5(3) 2_677 2_677 y
O4 Th1 O3 120.6(3) . 2_677 y
O4 Th1 O8 75.5(3) . 2_777 y
O4 Th1 O10 73.5(3) . 2_777 y
O4 Th1 O11 76.5(3) . 2_677 y
O7 Th1 O3 78.4(3) . 2_677 y
O7 Th1 O4 140.1(3) . . y
O7 Th1 O8 114.6(3) . 2_777 y
O7 Th1 O9 73.9(3) . . y
O7 Th1 O10 74.0(3) . 2_777 y
O7 Th1 O11 75.3(3) . 2_677 y
O7 Th1 O12 145.6(3) . . y
O9 Th1 O3 75.1(3) . 2_677 y
O9 Th1 O4 141.6(3) . . y
O9 Th1 O8 72.2(3) . 2_777 y
O9 Th1 O10 114.1(3) . 2_777 y
O9 Th1 O11 140.9(3) . 2_677 y
O9 Th1 O12 79.5(3) . . y
O10 Th1 O3 146.3(3) 2_777 2_677 y
O10 Th1 O8 71.6(3) 2_777 2_777 y
O10 Th1 O11 79.2(3) 2_777 2_677 y
O11 Th1 O8 144.1(3) 2_677 2_777 y
O12 Th1 O3 73.9(3) . 2_677 y
O12 Th1 O4 73.1(3) . . y
O12 Th1 O8 76.4(3) . 2_777 y
O12 Th1 O10 138.3(3) . 2_777 y
O12 Th1 O11 115.9(3) . 2_677 y
C00F O3 Th1 140.5(7) . 2_677 ?
C00F O4 Th1 141.6(7) . . ?
C11 O7 Th1 166.2(8) . . ?
C11 O8 Th1 132.9(7) . 2_777 ?
C19 O9 Th1 147.7(8) . . ?
C19 O10 Th1 142.7(8) . 2_777 ?
C17 O11 Th1 117.0(7) . 2_677 ?
C17 O12 Th1 175.3(8) . . ?
C14 N5 C15 118.2(12) . . ?
C21 N6 C22 118.3(15) . . ?
C5 N7 C2 120.1(12) . . ?
C10 N8 C6 119.9(12) . . ?
O3 C00F O4 125.5(10) . . ?
O3 C00F C1 117.0(10) . . ?
O4 C00F C1 117.4(10) . . ?
C2 C1 C00F 123.6(11) . . ?
C2 C1 C3 116.9(11) . . ?
C3 C1 C00F 119.4(11) . . ?
N7 C2 C1 121.6(12) . . ?
N7 C2 H2 119.2 . . ?
C1 C2 H2 119.2 . . ?
C1 C3 H3 119.8 . . ?
C4 C3 C1 120.5(12) . . ?
C4 C3 H3 119.8 . . ?
C3 C4 H4 120.3 . . ?
C5 C4 C3 119.5(11) . . ?
C5 C4 H4 120.3 . . ?
N7 C5 C4 121.2(12) . . ?
N7 C5 C6 120.5(12) . 1_444 ?
C4 C5 C6 118.2(11) . 1_444 ?
N8 C6 C5 119.6(12) . 1_666 ?
C7 C6 N8 120.8(12) . . ?
C7 C6 C5 119.4(11) . 1_666 ?
C6 C7 H7 119.8 . . ?
C6 C7 C8 120.3(12) . . ?
C8 C7 H7 119.8 . . ?
C7 C8 H8 119.9 . . ?
C7 C8 C9 120.1(13) . . ?
C9 C8 H8 119.9 . . ?
C8 C9 C10 118.1(11) . . ?
C8 C9 C11 121.7(11) . . ?
C10 C9 C11 120.1(10) . . ?
N8 C10 C9 120.5(11) . . ?
N8 C10 H10 119.7 . . ?
C9 C10 H10 119.7 . . ?
O7 C11 C9 117.4(10) . . ?
O8 C11 O7 124.8(10) . . ?
O8 C11 C9 117.7(10) . . ?
C13 C12 H12 118.9 . . ?
C16 C12 H12 118.9 . . ?
C16 C12 C13 122.1(14) . . ?
C12 C13 C14 118.7(12) . . ?
C12 C13 C17 121.0(11) . . ?
C14 C13 C17 120.3(11) . . ?
N5 C14 C13 120.5(13) . . ?
N5 C14 H14 119.7 . . ?
C13 C14 H14 119.7 . . ?
N5 C15 C15 118.2(16) . 2_667 ?
C16 C15 N5 122.7(13) . . ?
C16 C15 C15 118.9(17) . 2_667 ?
C12 C16 C15 117.7(13) . . ?
C12 C16 H16 121.1 . . ?
C15 C16 H16 121.1 . . ?
O11 C17 C13 117.0(10) . . ?
O12 C17 O11 122.9(10) . . ?
O12 C17 C13 120.1(10) . . ?
C20 C18 H18 119.9 . . ?
C23 C18 H18 119.9 . . ?
C23 C18 C20 120.3(14) . . ?
O9 C19 C20 114.6(10) . . ?
O10 C19 O9 126.8(10) . . ?
O10 C19 C20 118.5(11) . . ?
C18 C20 C19 121.4(12) . . ?
C18 C20 C21 117.0(13) . . ?
C21 C20 C19 121.5(12) . . ?
N6 C21 C20 123.0(15) . . ?
N6 C21 H21 118.5 . . ?
C20 C21 H21 118.5 . . ?
N6 C22 C22 117.4(19) . 2_778 ?
N6 C22 C23 123.3(14) . . ?
C23 C22 C22 119.4(18) . 2_778 ?
C18 C23 H23 121.0 . . ?
C22 C23 C18 118.0(14) . . ?
C22 C23 H23 121.0 . . ?
loop_
_geom_bond_atom_site_label_1
_geom_bond_atom_site_label_2
_geom_bond_distance
_geom_bond_site_symmetry_2
_geom_bond_publ_flag
Th1 O3 2.428(7) 2_677 y
Th1 O4 2.386(7) . y
Th1 O7 2.359(7) . y
Th1 O8 2.447(8) 2_777 y
Th1 O9 2.378(8) . y
Th1 O10 2.423(8) 2_777 y
Th1 O11 2.433(7) 2_677 y
Th1 O12 2.383(7) . y
O3 C00F 1.256(13) . ?
O4 C00F 1.274(14) . ?
O7 C11 1.246(13) . ?
O8 C11 1.245(13) . ?
O9 C19 1.272(14) . ?
O10 C19 1.196(14) . ?
O11 C17 1.256(14) . ?
O12 C17 1.228(14) . ?
N5 C14 1.343(19) . ?
N5 C15 1.38(2) . ?
N6 C21 1.32(2) . ?
N6 C22 1.33(2) . ?
N7 C2 1.345(17) . ?
N7 C5 1.333(17) . ?
N8 C6 1.349(17) . ?
N8 C10 1.340(17) . ?
C00F C1 1.482(15) . ?
C1 C2 1.385(18) . ?
C1 C3 1.394(17) . ?
C2 H2 0.9300 . ?
C3 H3 0.9300 . ?
C3 C4 1.362(17) . ?
C4 H4 0.9300 . ?
C4 C5 1.360(18) . ?
C5 C6 1.470(17) 1_444 ?
C6 C7 1.343(18) . ?
C7 H7 0.9300 . ?
C7 C8 1.346(18) . ?
C8 H8 0.9300 . ?
C8 C9 1.378(17) . ?
C9 C10 1.384(18) . ?
C9 C11 1.507(15) . ?
C10 H10 0.9300 . ?
C12 H12 0.9300 . ?
C12 C13 1.377(18) . ?
C12 C16 1.33(2) . ?
C13 C14 1.380(18) . ?
C13 C17 1.520(15) . ?
C14 H14 0.9300 . ?
C15 C15 1.50(3) 2_667 ?
C15 C16 1.36(2) . ?
C16 H16 0.9300 . ?
C18 H18 0.9300 . ?
C18 C20 1.379(19) . ?
C18 C23 1.37(2) . ?
C19 C20 1.502(16) . ?
C20 C21 1.38(2) . ?
C21 H21 0.9300 . ?
C22 C22 1.52(3) 2_778 ?
C22 C23 1.36(2) . ?
C23 H23 0.9300 . ?
loop_
_geom_torsion_atom_site_label_1
_geom_torsion_atom_site_label_2
_geom_torsion_atom_site_label_3
_geom_torsion_atom_site_label_4
_geom_torsion
_geom_torsion_site_symmetry_1
_geom_torsion_site_symmetry_2
_geom_torsion_site_symmetry_3
_geom_torsion_site_symmetry_4
_geom_torsion_publ_flag
Th1 O3 C00F O4 -7(2) 2_677 . . . ?
Th1 O3 C00F C1 170.9(8) 2_677 . . . ?
Th1 O4 C00F O3 47.1(18) . . . . ?
Th1 O4 C00F C1 -131.3(10) . . . . ?
Th1 O7 C11 O8 29(4) . . . . ?
Th1 O7 C11 C9 -147(3) . . . . ?
Th1 O8 C11 O7 -3.6(19) 2_777 . . . ?
Th1 O8 C11 C9 172.8(8) 2_777 . . . ?
Th1 O9 C19 O10 -42(2) . . . . ?
Th1 O9 C19 C20 134.1(12) . . . . ?
Th1 O10 C19 O9 1(2) 2_777 . . . ?
Th1 O10 C19 C20 -174.6(10) 2_777 . . . ?
Th1 O11 C17 O12 -0.4(16) 2_677 . . . ?
Th1 O11 C17 C13 179.0(9) 2_677 . . . ?
O3 C00F C1 C2 8.8(19) . . . . ?
O3 C00F C1 C3 -167.5(12) . . . . ?
O4 C00F C1 C2 -172.6(12) . . . . ?
O4 C00F C1 C3 11.0(18) . . . . ?
O9 C19 C20 C18 2(2) . . . . ?
O9 C19 C20 C21 -177.4(14) . . . . ?
O10 C19 C20 C18 178.6(14) . . . . ?
O10 C19 C20 C21 -1(2) . . . . ?
N5 C15 C16 C12 2(3) . . . . ?
N6 C22 C23 C18 2(3) . . . . ?
N8 C6 C7 C8 4(2) . . . . ?
C00F C1 C2 N7 -173.9(14) . . . . ?
C00F C1 C3 C4 171.4(13) . . . . ?
C1 C3 C4 C5 3(2) . . . . ?
C2 N7 C5 C4 -5(2) . . . . ?
C2 N7 C5 C6 172.6(14) . . . 1_444 ?
C2 C1 C3 C4 -5(2) . . . . ?
C3 C1 C2 N7 3(2) . . . . ?
C3 C4 C5 N7 3(2) . . . . ?
C3 C4 C5 C6 -175.4(14) . . . 1_444 ?
C5 N7 C2 C1 3(2) . . . . ?
C5 C6 C7 C8 -172.5(14) 1_666 . . . ?
C6 N8 C10 C9 -1(2) . . . . ?
C6 C7 C8 C9 -1(2) . . . . ?
C7 C8 C9 C10 -3(2) . . . . ?
C7 C8 C9 C11 173.8(13) . . . . ?
C8 C9 C10 N8 4(2) . . . . ?
C8 C9 C11 O7 3.4(18) . . . . ?
C8 C9 C11 O8 -173.4(12) . . . . ?
C10 N8 C6 C5 173.7(14) . . . 1_666 ?
C10 N8 C6 C7 -2(2) . . . . ?
C10 C9 C11 O7 179.8(12) . . . . ?
C10 C9 C11 O8 3.1(18) . . . . ?
C11 C9 C10 N8 -172.7(13) . . . . ?
C12 C13 C14 N5 0(2) . . . . ?
C12 C13 C17 O11 6(2) . . . . ?
C12 C13 C17 O12 -174.3(14) . . . . ?
C13 C12 C16 C15 -1(3) . . . . ?
C14 N5 C15 C15 -176.9(19) . . . 2_667 ?
C14 N5 C15 C16 -2(3) . . . . ?
C14 C13 C17 O11 -173.4(13) . . . . ?
C14 C13 C17 O12 6(2) . . . . ?
C15 N5 C14 C13 0(2) . . . . ?
C15 C15 C16 C12 177(2) 2_667 . . . ?
C16 C12 C13 C14 0(3) . . . . ?
C16 C12 C13 C17 -179.6(15) . . . . ?
C17 C13 C14 N5 -180.0(14) . . . . ?
C18 C20 C21 N6 -1(3) . . . . ?
C19 C20 C21 N6 178.5(16) . . . . ?
C20 C18 C23 C22 -2(3) . . . . ?
C21 N6 C22 C22 177(2) . . . 2_778 ?
C21 N6 C22 C23 -2(3) . . . . ?
C22 N6 C21 C20 1(3) . . . . ?
C22 C22 C23 C18 -177(2) 2_778 . . . ?
C23 C18 C20 C19 -178.3(15) . . . . ?
C23 C18 C20 C21 1(2) . . . . ?
loop_
_smtbx_masks_void_nr
_smtbx_masks_void_average_x
_smtbx_masks_void_average_y
_smtbx_masks_void_average_z
_smtbx_masks_void_volume
_smtbx_masks_void_count_electrons
_smtbx_masks_void_content
1 -0.805 -0.329 0.171 751.5 174.5 '1 DMF,1 EtOH,11 water'
