#------------------------------------------------------------------------------
#$Date: 2022-09-15 01:50:33 +0300 (Thu, 15 Sep 2022) $
#$Revision: 277853 $
#$URL: file:///home/coder/svn-repositories/cod/cif/7/71/12/7711242.cif $
#------------------------------------------------------------------------------
#
# This file is available in the Crystallography Open Database (COD),
# http://www.crystallography.net/
#
# All data on this site have been placed in the public domain by the
# contributors.
#
data_7711242
loop_
_publ_author_name
'Dai, Siyu'
'Liu, Yuqi'
'Mei, Yunjie'
'Hu, Jue'
'Wang, Kaiming'
'Li, Yanghua'
'Jin, Nanhao'
'Wang, Xinying'
'Luo, Huilong'
'Li, Wei'
_publ_section_title
;
 Iron-doped novel Co-based metal-organic frameworks for preparation of
 bifunctional catalysts with amorphous structure for OER/HER in alkaline
 solution
;
_journal_name_full               'Dalton Transactions'
_journal_paper_doi               10.1039/D2DT01837C
_journal_year                    2022
_chemical_formula_moiety         'C26 H16 Co N6 O5, 2(C3 H7 N O)'
_chemical_formula_sum            'C32 H30 Co N8 O7'
_chemical_formula_weight         697.57
_space_group_crystal_system      monoclinic
_space_group_IT_number           14
_space_group_name_Hall           '-P 2ybc'
_space_group_name_H-M_alt        'P 1 21/c 1'
_atom_sites_solution_hydrogens   geom
_atom_sites_solution_primary     direct
_audit_creation_date             2021-01-20
_audit_creation_method
;
Olex2 1.2
(compiled 2018.05.29 svn.r3508 for OlexSys, GUI svn.r5506)
;
_audit_update_record
;
2022-04-26 deposited with the CCDC.	2022-09-14 downloaded from the CCDC.
;
_cell_angle_alpha                90
_cell_angle_beta                 111.414(3)
_cell_angle_gamma                90
_cell_formula_units_Z            4
_cell_length_a                   13.942(2)
_cell_length_b                   13.1857(19)
_cell_length_c                   18.636(3)
_cell_measurement_reflns_used    2423
_cell_measurement_temperature    273(2)
_cell_measurement_theta_max      22.79
_cell_measurement_theta_min      2.20
_cell_volume                     3189.4(8)
_computing_cell_refinement       'SAINT v8.34A (Bruker, 2013)'
_computing_data_reduction        'SAINT v8.34A (Bruker, 2013)'
_computing_molecular_graphics    'Olex2 (Dolomanov et al., 2009)'
_computing_publication_material  'Olex2 (Dolomanov et al., 2009)'
_computing_structure_refinement  'ShelXL (Sheldrick, 2015)'
_computing_structure_solution    'ShelXS (Sheldrick, 2008)'
_diffrn_ambient_temperature      273.15
_diffrn_measured_fraction_theta_full 0.999
_diffrn_measured_fraction_theta_max 0.999
_diffrn_measurement_device_type  'CCD area detector'
_diffrn_measurement_method       'phi and omega scans'
_diffrn_radiation_monochromator  graphite
_diffrn_radiation_type           MoK\a
_diffrn_radiation_wavelength     0.71073
_diffrn_reflns_av_R_equivalents  0.0666
_diffrn_reflns_av_unetI/netI     0.0852
_diffrn_reflns_Laue_measured_fraction_full 0.999
_diffrn_reflns_Laue_measured_fraction_max 0.999
_diffrn_reflns_limit_h_max       16
_diffrn_reflns_limit_h_min       -15
_diffrn_reflns_limit_k_max       15
_diffrn_reflns_limit_k_min       -15
_diffrn_reflns_limit_l_max       15
_diffrn_reflns_limit_l_min       -22
_diffrn_reflns_number            15957
_diffrn_reflns_point_group_measured_fraction_full 0.999
_diffrn_reflns_point_group_measured_fraction_max 0.999
_diffrn_reflns_theta_full        25.008
_diffrn_reflns_theta_max         25.008
_diffrn_reflns_theta_min         1.569
_exptl_absorpt_coefficient_mu    0.600
_exptl_absorpt_correction_T_max  0.7456
_exptl_absorpt_correction_T_min  0.6589
_exptl_absorpt_correction_type   none
_exptl_absorpt_process_details
;
SADABS-2014/5 (Bruker,2014/5) was used for absorption correction.
wR2(int) was 0.0871 before and 0.0503 after correction.
The Ratio of minimum to maximum transmission is 0.8837.
The \l/2 correction factor is 0.00150.
;
_exptl_crystal_density_diffrn    1.453
_exptl_crystal_description       block
_exptl_crystal_F_000             1444
_exptl_crystal_recrystallization_method 'Re-crystallisation from solvent: DMF'
_exptl_crystal_size_max          0.11
_exptl_crystal_size_mid          0.1
_exptl_crystal_size_min          0.07
_refine_diff_density_max         0.379
_refine_diff_density_min         -0.443
_refine_diff_density_rms         0.098
_refine_ls_extinction_method     none
_refine_ls_goodness_of_fit_ref   0.991
_refine_ls_hydrogen_treatment    constr
_refine_ls_matrix_type           full
_refine_ls_number_parameters     485
_refine_ls_number_reflns         5615
_refine_ls_number_restraints     231
_refine_ls_restrained_S_all      0.994
_refine_ls_R_factor_all          0.1098
_refine_ls_R_factor_gt           0.0548
_refine_ls_shift/su_max          0.000
_refine_ls_shift/su_mean         0.000
_refine_ls_structure_factor_coef Fsqd
_refine_ls_weighting_details
'w=1/[\s^2^(Fo^2^)+(0.0773P)^2^] where P=(Fo^2^+2Fc^2^)/3'
_refine_ls_weighting_scheme      calc
_refine_ls_wR_factor_gt          0.1224
_refine_ls_wR_factor_ref         0.1534
_reflns_Friedel_coverage         0.000
_reflns_number_gt                3404
_reflns_number_total             5615
_reflns_threshold_expression     'I > 2\s(I)'
_cod_data_source_file            d2dt01837c2.cif
_cod_data_source_block           ww
_cod_original_cell_volume        3189.5(8)
_cod_database_code               7711242
_shelx_shelxl_version_number     2014/7
_shelx_space_group_comment
;
The symmetry employed for this shelxl refinement is uniquely defined
by the following loop, which should always be used as a source of
symmetry information in preference to the above space-group names.
They are only intended as comments.
;
_shelx_estimated_absorpt_t_max   0.959
_shelx_estimated_absorpt_t_min   0.937
_olex2_refinement_description
;
1. Fixed Uiso
 At 1.2 times of:
  All C(H) groups
 At 1.5 times of:
  All C(H,H,H) groups
2. Restrained distances
 O7-C30
 1.22 with sigma of 0.02
 C30-N8
 1.35 with sigma of 0.02
 N8-C31
 1.43 with sigma of 0.02
 N8-C32
 1.43 with sigma of 0.02
 N8-O7
 2.31 with sigma of 0.02
 C30A-O7A
 1.22 with sigma of 0.02
 N8A-C30A
 1.35 with sigma of 0.02
 C31A-C30A
 2.37 with sigma of 0.02
 N8A-O7A
 2.35 with sigma of 0.02
 C32A-C30A
 2.37 with sigma of 0.02
 N8A-C31A
 1.45 with sigma of 0.02
3. Rigid bond restraints
 N8, C31, C32, O7, C30, O7A, C30A, N8A, C31A, C32A
 with sigma for 1-2 distances of 0.01 and sigma for 1-3 distances of 0.01
4. Uiso/Uaniso restraints and constraints
N8 \\sim C31 \\sim C32 \\sim O7 \\sim C30 \\sim O7A \\sim C30A \\sim N8A \\sim
C31A \\sim C32A: within 2A with sigma of 0.04 and sigma for terminal atoms of
0.08
Uanis(O7) \\sim Ueq, Uanis(N8) \\sim Ueq, Uanis(C31) \\sim Ueq, Uanis(C32)
\\sim Ueq, Uanis(C30) \\sim Ueq, Uanis(O7A) \\sim Ueq, Uanis(C30A) \\sim Ueq,
Uanis(N8A) \\sim Ueq, Uanis(C31A) \\sim Ueq, Uanis(C32A) \\sim Ueq: with sigma
of 0.01 and sigma for terminal atoms of 0.02
5. Others
 Sof(O7A)=Sof(C30A)=Sof(H30A)=Sof(N8A)=Sof(C31A)=Sof(H31D)=Sof(H31E)=Sof(H31F)=
 Sof(C32A)=Sof(H32D)=Sof(H32E)=Sof(H32F)=1-FVAR(1)
 Sof(N8)=Sof(C31)=Sof(H31A)=Sof(H31B)=Sof(H31C)=Sof(C32)=Sof(H32A)=Sof(H32B)=
 Sof(H32C)=Sof(O7)=Sof(C30)=Sof(H30)=FVAR(1)
6.a Aromatic/amide H refined with riding coordinates:
 C13(H13), C17(H17), C19(H19), C12(H12), C16(H16), C24(H24), C7(H7), C9(H9),
 C10(H10), C15(H15), C6(H6), C3(H3), C26(H26), C25(H25), C4(H4), C22(H22),
 C29(H29), C30(H30), C30A(H30A)
6.b Idealised Me refined as rotating group:
 C27(H27A,H27B,H27C), C28(H28A,H28B,H28C), C31(H31A,H31B,H31C), C32(H32A,H32B,
 H32C), C31A(H31D,H31E,H31F), C32A(H32D,H32E,H32F)
;
_shelx_res_file
;
    ww.res created by SHELXL-2014/7

TITL ww in P21/c #14
REM reset to P21/c #14
CELL 0.71073 13.9419 13.1857 18.6363 90 111.414 90
ZERR 4 0.002 0.0019 0.0026 0 0.003 0
LATT 1
SYMM -X,0.5+Y,0.5-Z
SFAC C H N O Co
UNIT 128 120 32 28 4
DFIX 1.22 O7 C30
DFIX 1.35 C30 N8
DFIX 1.43 N8 C31
DFIX 1.43 N8 C32
DFIX 2.31 N8 O7
DFIX 1.22 C30A O7A
DFIX 1.35 N8A C30A
DFIX 2.37 C31A C30A
DFIX 2.35 N8A O7A
DFIX 2.37 C32A C30A
DFIX 1.45 N8A C31A
DELU N8 C31 C32 O7 C30 O7A C30A N8A C31A C32A
SIMU N8 C31 C32 O7 C30 O7A C30A N8A C31A C32A
ISOR 0.01 0.02 O7 N8 C31 C32 C30 O7A C30A N8A C31A C32A

L.S. 20 0 0
PLAN  20
SIZE 0.11 0.1 0.07
TEMP 0
BOND
fmap 2 53
acta
OMIT -3 50.02
REM <olex2.extras>
REM <HklSrc "%.\\ww.hkl">
REM </olex2.extras>

WGHT    0.077300
FVAR       0.09035   0.68672
CO1   5    0.104029    0.020546    0.113103    11.00000    0.03028    0.01770 =
         0.03855   -0.00275    0.00475    0.00483
O4    4   -0.738252    0.518783   -0.320507    11.00000    0.03974    0.04588 =
         0.04223    0.01179   -0.00006   -0.00559
O1    4   -0.027587    0.096058    0.102565    11.00000    0.03388    0.03294 =
         0.03804    0.00125    0.00244    0.01103
N6    3    0.154901   -0.840571    0.074223    11.00000    0.04511    0.02161 =
         0.04711   -0.00348    0.01646    0.00419
O5    4   -0.823919    0.426672   -0.267598    11.00000    0.03225    0.04515 =
         0.04647    0.00577    0.00461   -0.00223
O2    4   -0.108896    0.047375   -0.017388    11.00000    0.04625    0.04202 =
         0.04834   -0.01439    0.01145    0.00984
N1    3    0.046006   -0.114430    0.147883    11.00000    0.03689    0.01967 =
         0.04373   -0.00369    0.00597    0.00191
C11   1   -0.177499    0.184561    0.029048    11.00000    0.02623    0.02795 =
         0.03065   -0.00124    0.00603    0.00398
C1    1   -0.741956    0.468823   -0.264009    11.00000    0.03209    0.02552 =
         0.04355    0.00040    0.00690    0.00497
O3    4   -0.375483    0.429248   -0.002865    11.00000    0.05203    0.05574 =
         0.05845   -0.02086   -0.01300    0.03254
C2    1   -0.646439    0.459216   -0.194068    11.00000    0.03164    0.03740 =
         0.03660    0.00003    0.00846    0.00421
C14   1   -0.100148    0.102824    0.038407    11.00000    0.02931    0.02175 =
         0.03489    0.00055    0.01251   -0.00319
C21   1    0.112961   -0.562616    0.083636    11.00000    0.05054    0.02524 =
         0.04551    0.00345    0.01622    0.00015
C13   1   -0.227612    0.342403    0.071162    11.00000    0.03917    0.04035 =
         0.03958   -0.01033   -0.00447    0.01256
AFIX  43
H13   2   -0.214822    0.393876    0.107589    11.00000   -1.20000
AFIX   0
C20   1    0.056686   -0.393413    0.122571    11.00000    0.04800    0.01959 =
         0.05099    0.00262    0.01790   -0.00104
C17   1   -0.031485   -0.288877    0.191478    11.00000    0.05780    0.02948 =
         0.05344    0.00319    0.02365   -0.00438
AFIX  43
H17   2   -0.057549   -0.347064    0.205944    11.00000   -1.20000
AFIX   0
PART 1
N3    3    0.047458   -0.564396    0.119520    11.00000    0.10197    0.01917 =
         0.15019   -0.00666    0.08545   -0.00268
PART 0
C19   1    0.065271   -0.206979    0.127425    11.00000    0.03952    0.02281 =
         0.04453    0.00101    0.01736    0.00106
AFIX  43
H19   2    0.105635   -0.211961    0.097371    11.00000   -1.20000
AFIX   0
C23   1    0.150040   -0.660329    0.064501    11.00000    0.04070    0.02229 =
         0.04224   -0.00024    0.01064    0.00241
C12   1   -0.160490    0.261771    0.082911    11.00000    0.03107    0.03723 =
         0.03551   -0.00264   -0.00069    0.00873
AFIX  43
H12   2   -0.102482    0.259103    0.127988    11.00000   -1.20000
AFIX   0
N2    3    0.017364   -0.476756    0.139383    11.00000    0.10272    0.02452 =
         0.14910   -0.00591    0.08869   -0.00388
C18   1    0.029515   -0.295486    0.147747    11.00000    0.03971    0.02298 =
         0.04182   -0.00055    0.01271    0.00011
C16   1   -0.053085   -0.194317    0.213339    11.00000    0.06920    0.04008 =
         0.05933    0.00503    0.04119    0.00440
AFIX  43
H16   2   -0.094342   -0.187483    0.242582    11.00000   -1.20000
AFIX   0
C24   1    0.211093   -0.663700    0.020792    11.00000    0.06397    0.02649 =
         0.06577    0.00371    0.02828   -0.00279
AFIX  43
H24   2    0.229772   -0.604243    0.002414    11.00000   -1.20000
AFIX   0
C7    1   -0.560130    0.514502   -0.186944    11.00000    0.04173    0.05901 =
         0.06222    0.01229    0.00101   -0.00422
AFIX  43
H7    2   -0.562438    0.560267   -0.225511    11.00000   -1.20000
AFIX   0
C8    1   -0.313577    0.345378    0.004815    11.00000    0.03332    0.03949 =
         0.04106   -0.00231    0.00453    0.01600
C9    1   -0.333878    0.268981   -0.049195    11.00000    0.03223    0.04539 =
         0.03850   -0.00721   -0.00459    0.01432
AFIX  43
H9    2   -0.393201    0.270843   -0.093354    11.00000   -1.20000
AFIX   0
C5    1   -0.466874    0.435759   -0.067952    11.00000    0.03795    0.04638 =
         0.04639   -0.01242   -0.00270    0.02142
C10   1   -0.265161    0.189758   -0.036956    11.00000    0.03800    0.03251 =
         0.04288   -0.01191    0.00917    0.00257
AFIX  43
H10   2   -0.278003    0.138819   -0.073800    11.00000   -1.20000
AFIX   0
C15   1   -0.012451   -0.110228    0.191077    11.00000    0.06014    0.03267 =
         0.04817   -0.00623    0.02000    0.00792
AFIX  43
H15   2   -0.026374   -0.046863    0.206929    11.00000   -1.20000
AFIX   0
N4    3    0.145385   -0.479089    0.061553    11.00000    0.15483    0.02614 =
         0.12743    0.01026    0.11088    0.00611
C6    1   -0.469757    0.503761   -0.123734    11.00000    0.03523    0.06814 =
         0.06644    0.00829   -0.00039   -0.00097
AFIX  43
H6    2   -0.411997    0.542251   -0.119376    11.00000   -1.20000
AFIX   0
C3    1   -0.642121    0.392972   -0.135884    11.00000    0.04062    0.05425 =
         0.04972    0.00757    0.01341    0.00583
AFIX  43
H3    2   -0.700553    0.356427   -0.138977    11.00000   -1.20000
AFIX   0
N5    3    0.116163   -0.393046    0.081705    11.00000    0.14708    0.01749 =
         0.11827   -0.00155    0.10136    0.00092
C26   1    0.213890   -0.841735    0.032616    11.00000    0.06188    0.03243 =
         0.08282    0.00094    0.04164    0.00978
AFIX  43
H26   2    0.236380   -0.904118    0.021532    11.00000   -1.20000
AFIX   0
C25   1    0.243813   -0.755644    0.004825    11.00000    0.07048    0.04649 =
         0.09502    0.00663    0.05705    0.00516
AFIX  43
H25   2    0.285497   -0.759903   -0.024266    11.00000   -1.20000
AFIX   0
C4    1   -0.551081    0.380069   -0.072355    11.00000    0.05439    0.05376 =
         0.04053    0.01061    0.00553    0.01422
AFIX  43
H4    2   -0.547932    0.334204   -0.033647    11.00000   -1.20000
AFIX   0
C22   1    0.124608   -0.749858    0.089789    11.00000    0.04257    0.02217 =
         0.04490    0.00062    0.01861    0.00174
AFIX  43
H22   2    0.083781   -0.747530    0.119614    11.00000   -1.20000
AFIX   0

O6    4   -0.484582   -0.193408   -0.062320    11.00000    0.10744    0.18115 =
         0.08620    0.01524    0.00221   -0.00987
N7    3   -0.578839   -0.211956   -0.188781    11.00000    0.11414    0.08402 =
         0.06298    0.00917    0.01547   -0.00412
C29   1   -0.564179   -0.210060   -0.116244    11.00000    0.09422    0.16087 =
         0.08129    0.02493    0.01718   -0.00250
AFIX  43
H29   2   -0.621763   -0.223070   -0.103738    11.00000   -1.20000
AFIX   0
C27   1   -0.677975   -0.230525   -0.247844    11.00000    0.15553    0.13242 =
         0.11900   -0.01837   -0.03378    0.00402
AFIX 137
H27A  2   -0.673102   -0.286938   -0.278898    11.00000   -1.50000
H27B  2   -0.699772   -0.171346   -0.279680    11.00000   -1.50000
H27C  2   -0.727185   -0.245677   -0.224352    11.00000   -1.50000
AFIX   0
C28   1   -0.490474   -0.199099   -0.210802    11.00000    0.19572    0.22512 =
         0.17800   -0.00201    0.12307   -0.07381
AFIX 137
H28A  2   -0.441300   -0.155429   -0.174436    11.00000   -1.50000
H28B  2   -0.511921   -0.169378   -0.261249    11.00000   -1.50000
H28C  2   -0.459438   -0.263939   -0.211364    11.00000   -1.50000
AFIX   0

PART 2
N8    3   -0.364602   -0.043467    0.148059    21.00000    0.11674    0.08319 =
         0.09160   -0.01141    0.03644    0.00605
C31   1   -0.471507   -0.070587    0.128349    21.00000    0.15377    0.19839 =
         0.16337   -0.02139    0.07583   -0.06311
AFIX 137
H31A  2   -0.514355   -0.014499    0.102928    21.00000   -1.50000
H31B  2   -0.483805   -0.087037    0.174434    21.00000   -1.50000
H31C  2   -0.487445   -0.128259    0.094579    21.00000   -1.50000
AFIX   0
C32   1   -0.330312   -0.024017    0.086830    21.00000    0.17410    0.15412 =
         0.15673   -0.02209    0.10656   -0.01102
AFIX 137
H32A  2   -0.344635   -0.081738    0.053149    21.00000   -1.50000
H32B  2   -0.257471   -0.011402    0.107194    21.00000   -1.50000
H32C  2   -0.365524    0.034310    0.058528    21.00000   -1.50000
AFIX   0
O7    4   -0.224535   -0.017591    0.253329    21.00000    0.19829    0.21697 =
         0.17202   -0.01437   -0.02215    0.00408
C30   1   -0.309657   -0.042425    0.220301    21.00000    0.17777    0.17132 =
         0.13769   -0.00242    0.04142   -0.00622
AFIX  43
H30   2   -0.343610   -0.065487    0.251830    21.00000   -1.20000
AFIX   0
PART 0
PART 1
O7A   4   -0.308823   -0.047327    0.275930   -21.00000    0.19541    0.26354 =
         0.13695    0.01891    0.05472   -0.01643
C30A  1   -0.360592   -0.105343    0.217720   -21.00000    0.18790    0.19041 =
         0.17499    0.00578    0.06923   -0.01191
AFIX  43
H30A  2   -0.400551   -0.159731    0.222136   -21.00000   -1.20000
AFIX   0
N8A   3   -0.350462   -0.078206    0.148029   -21.00000    0.15891    0.15657 =
         0.15146   -0.00015    0.04926    0.00938
C31A  1   -0.444317   -0.072298    0.083415   -21.00000    0.18529    0.19002 =
         0.17422   -0.01843    0.02531   -0.02091
AFIX 137
H31D  2   -0.469224   -0.139500    0.067027   -21.00000   -1.50000
H31E  2   -0.432690   -0.037498    0.042075   -21.00000   -1.50000
H31F  2   -0.494468   -0.035904    0.097475   -21.00000   -1.50000
AFIX   0
C32A  1   -0.264422   -0.001361    0.167461   -21.00000    0.13093    0.12099 =
         0.14944   -0.00523    0.05373    0.03711
AFIX 137
H32D  2   -0.293105    0.065656    0.157139   -21.00000   -1.50000
H32E  2   -0.223612   -0.013919    0.136575   -21.00000   -1.50000
H32F  2   -0.221843   -0.006958    0.221025   -21.00000   -1.50000
AFIX   0
HKLF 4

REM  ww in P21/c #14
REM R1 =  0.0548 for    3404 Fo > 4sig(Fo)  and  0.1098 for all    5615 data
REM    485 parameters refined using    231 restraints

END

WGHT      0.0773      0.0000

REM Highest difference peak  0.379,  deepest hole -0.443,  1-sigma level  0.098
Q1    1  -0.2741  0.0157  0.2853  11.00000  0.05    0.38
Q2    1  -0.4970 -0.1704 -0.1397  11.00000  0.05    0.33
Q3    1  -0.4571 -0.0999 -0.1016  11.00000  0.05    0.33
Q4    1  -0.4271  0.0445  0.0391  11.00000  0.05    0.32
Q5    1  -0.4127  0.0219  0.1507  11.00000  0.05    0.30
Q6    1  -0.5498 -0.2158  0.0050  11.00000  0.05    0.29
Q7    1  -0.3968  0.0629  0.2593  11.00000  0.05    0.29
Q8    1  -0.4892  0.4421 -0.1577  11.00000  0.05    0.29
Q9    1  -0.3740  0.0807  0.1990  11.00000  0.05    0.29
Q10   1  -0.5438  0.0828  0.0614  11.00000  0.05    0.28
Q11   1  -0.5371  0.0214  0.1211  11.00000  0.05    0.28
Q12   1   0.3415 -0.7927  0.0021  11.00000  0.05    0.28
Q13   1  -0.4223 -0.2556  0.1812  11.00000  0.05    0.27
Q14   1  -0.4484 -0.1951  0.1274  11.00000  0.05    0.27
Q15   1  -0.4207  0.0913  0.0753  11.00000  0.05    0.27
Q16   1  -0.5018  0.0413  0.1025  11.00000  0.05    0.27
Q17   1  -0.4600 -0.2161 -0.1392  11.00000  0.05    0.27
Q18   1  -0.3640 -0.2046  0.1828  11.00000  0.05    0.27
Q19   1  -0.4992 -0.1976  0.1631  11.00000  0.05    0.27
Q20   1  -0.4182 -0.0535  0.2138  11.00000  0.05    0.26
;
_shelx_res_checksum              44672
_shelx_hkl_file
;
   1   0   0   -0.17    0.03
   2   0   0   81.02    1.98
  -3   0   0   13.15    0.55
   3   0   0   13.40    0.58
  -3   0   0   11.84    0.55
   4   0   0   11.36    0.59
  -4   0   0    9.84    0.60
  -4   0   0   11.47    0.62
  -5   0   0   59.97    1.81
  -5   0   0   61.57    1.82
   5   0   0   63.22    1.83
  -6   0   0    3.19    0.48
  -6   0   0    2.89    0.43
   6   0   0    4.14    0.55
   7   0   0    0.87    0.41
  -7   0   0    0.02    0.37
  -7   0   0    0.63    0.42
   8   0   0   14.04    0.99
  -8   0   0   15.59    0.99
  -8   0   0   14.77    1.07
   9   0   0   17.68    1.13
  -9   0   0   18.11    1.27
 -10   0   0    0.62    0.69
  10   0   0    0.66    0.69
  11   0   0    8.72    1.06
 -11   0   0    6.83    0.95
  12   0   0   -0.14    0.69
 -12   0   0    1.05    0.81
 -13   0   0    7.08    1.16
  13   0   0    6.83    1.07
  14   0   0   16.70    1.59
  15   0   0    5.58    1.07
  16   0   0    1.78    1.01
   0   1   0   -0.20    0.04
   1  -1   0    2.49    0.17
  -2  -1   0   29.14    0.83
   2  -1   0   29.10    0.85
  -2   1   0   28.03    0.89
   2   1   0   28.76    0.82
   3  -1   0    6.10    0.41
  -3  -1   0    7.57    0.42
   3   1   0    6.39    0.44
  -3   1   0    6.06    0.47
  -3   1   0    7.33    0.46
  -4  -1   0   39.33    1.14
  -4  -1   0   40.56    1.23
   4  -1   0   34.81    1.18
  -4   1   0   34.85    1.23
  -4   1   0   37.44    1.20
   4   1   0   35.40    1.18
   5  -1   0    2.35    0.40
  -5  -1   0    2.11    0.35
  -5  -1   0    2.32    0.36
  -5   1   0    2.46    0.40
   5   1   0    2.54    0.42
  -5   1   0    2.73    0.41
  -6  -1   0    0.82    0.33
  -6  -1   0    0.99    0.33
   6  -1   0    0.93    0.41
  -6   1   0    1.22    0.39
   6   1   0    0.85    0.38
  -6   1   0    0.64    0.36
  -7  -1   0    1.85    0.45
  -7  -1   0    1.17    0.38
   7  -1   0    1.38    0.46
   7   1   0    1.78    0.45
  -7   1   0    1.26    0.46
  -8  -1   0    3.05    0.56
  -8  -1   0    4.01    0.59
   8  -1   0    4.90    0.72
  -8   1   0    3.66    0.64
   8   1   0    4.91    0.70
   9  -1   0    3.99    0.72
  -9  -1   0    4.41    0.74
  -9  -1   0    4.16    0.68
   9   1   0    3.78    0.76
  -9   1   0    2.81    0.68
 -10  -1   0    0.36    0.64
  10  -1   0    0.43    0.59
 -10   1   0   -0.81    0.59
  10   1   0   -0.34    0.60
  11  -1   0    0.80    0.66
 -11  -1   0    1.10    0.73
 -11   1   0    0.48    0.73
  11   1   0    0.46    0.60
 -12  -1   0    0.01    0.68
  12  -1   0   -0.56    0.60
  12   1   0    0.40    0.62
 -13  -1   0    0.54    0.82
  13  -1   0    0.96    0.77
  13   1   0    0.31    0.66
 -14  -1   0   -0.16    0.85
  14  -1   0   -0.14    0.77
  14   1   0   -0.13    0.75
 -15  -1   0   -0.51    0.98
  15  -1   0   -0.49    0.86
  15   1   0    0.28    0.86
  16  -1   0    0.75    0.97
   0   2   0  154.47    3.63
  -1  -2   0   22.17    0.68
  -1   2   0   23.06    0.74
   1   2   0   24.03    0.70
  -2  -2   0    8.88    0.40
   2  -2   0    6.89    0.41
   2   2   0    7.55    0.38
  -3  -2   0    0.11    0.17
   3  -2   0    0.34    0.23
   3   2   0    0.27    0.24
  -4  -2   0   46.39    1.47
   4  -2   0   48.39    1.48
  -4  -2   0   49.56    1.46
   4   2   0   47.83    1.42
   5  -2   0   52.07    1.63
  -5  -2   0   52.21    1.48
  -5  -2   0   50.55    1.61
   5   2   0   51.10    1.58
  -6  -2   0   34.50    1.14
  -6  -2   0   30.58    1.23
   6  -2   0   32.63    1.26
   6   2   0   29.51    1.20
  -7  -2   0    0.24    0.39
   7  -2   0    0.90    0.44
  -7  -2   0    0.43    0.32
   7   2   0    0.63    0.42
   8  -2   0   34.38    1.49
  -8  -2   0   36.47    1.57
  -8  -2   0   36.60    1.35
   8   2   0   31.76    1.44
   9  -2   0   23.94    1.33
  -9  -2   0   24.16    1.35
  -9  -2   0   26.87    1.23
   9   2   0   24.30    1.28
 -10  -2   0   13.65    1.29
  10  -2   0   12.87    1.20
  10   2   0   13.37    1.15
  11  -2   0   29.51    1.60
 -11  -2   0   28.07    1.66
  11   2   0   31.03    1.62
  12  -2   0    1.05    0.80
 -12  -2   0    0.49    0.68
  12   2   0    1.93    0.77
  13  -2   0    6.92    1.11
 -13  -2   0    3.22    1.01
  13   2   0    4.51    0.95
 -14  -2   0    6.32    1.24
  14  -2   0    5.78    1.12
  14   2   0    9.28    1.25
 -15  -2   0    2.81    1.13
  15  -2   0    2.52    0.97
 -16  -2   0   -0.47    1.08
  16  -2   0    0.13    1.02
   0   3   0    0.00    0.17
  -1  -3   0   68.95    1.81
  -1   3   0   72.58    1.92
   1   3   0   71.57    1.85
  -2  -3   0   42.71    1.27
   2  -3   0   45.77    1.33
   2   3   0   44.18    1.27
   3  -3   0    0.84    0.28
  -3  -3   0    1.43    0.25
   3   3   0    1.02    0.25
   4  -3   0    7.93    0.58
  -4  -3   0    7.51    0.51
   4   3   0    6.90    0.50
   5  -3   0   42.21    1.43
  -5  -3   0   41.14    1.20
  -5  -3   0   40.54    1.39
   5   3   0   39.38    1.33
  -6  -3   0    1.13    0.38
  -6  -3   0    1.21    0.32
   6  -3   0    1.29    0.42
   6   3   0    0.87    0.36
  -7  -3   0    3.05    0.56
  -7  -3   0    3.23    0.44
   7  -3   0    2.64    0.55
   7   3   0    3.28    0.54
   8  -3   0    1.84    0.63
  -8  -3   0    1.39    0.51
  -8  -3   0    2.09    0.44
   8   3   0    1.81    0.53
   9  -3   0    4.26    0.79
  -9  -3   0    2.78    0.65
   9   3   0    4.03    0.68
  10  -3   0    0.47    0.64
 -10  -3   0    0.50    0.63
  10   3   0   -0.16    0.55
 -11  -3   0    4.22    0.91
  11  -3   0    3.77    0.85
  11   3   0    3.50    0.77
 -12  -3   0    3.34    0.89
  12  -3   0    3.25    0.94
  12   3   0    4.55    0.84
  13  -3   0    0.34    0.77
 -13  -3   0    1.16    0.91
  13   3   0    1.39    0.70
 -14  -3   0    0.70    0.96
  14  -3   0   -1.46    0.78
  15  -3   0   -0.71    0.81
 -15  -3   0   -0.32    1.03
 -16  -3   0   -0.65    1.04
  16  -3   0   -0.38    1.04
   0   4   0  146.20    3.64
  -1   4   0    1.31    0.33
   1   4   0    0.64    0.25
  -2  -4   0    3.11    0.28
  -2  -4   0    2.67    0.31
   2  -4   0    3.58    0.45
   2   4   0    3.53    0.38
  -3  -4   0    3.66    0.38
  -3  -4   0    3.90    0.30
   3  -4   0    3.84    0.45
   3   4   0    3.25    0.37
  -4  -4   0   17.35    0.63
  -4  -4   0   16.95    0.79
   4  -4   0   18.05    0.85
   4   4   0   18.28    0.79
   5  -4   0   80.33    2.35
  -5  -4   0   76.60    2.30
  -5  -4   0   77.30    2.02
   5   4   0   80.17    2.23
  -6  -4   0   24.28    1.14
  -6  -4   0   24.16    0.89
   6  -4   0   23.90    1.14
   6   4   0   26.28    1.09
   7  -4   0    2.08    0.54
  -7  -4   0    3.59    0.44
  -7  -4   0    1.97    0.50
   7   4   0    2.80    0.52
   8  -4   0   13.08    1.01
  -8  -4   0   12.30    1.08
   8   4   0   14.62    0.97
  -9  -4   0   14.61    1.24
   9  -4   0   12.88    1.10
   9   4   0   11.40    1.00
 -10  -4   0    2.95    0.78
  10  -4   0    2.68    0.79
  10   4   0    1.90    0.64
  11  -4   0    8.62    1.14
 -11  -4   0    6.70    1.03
  11   4   0    8.16    1.01
  12  -4   0    1.76    0.81
 -12  -4   0    1.76    0.76
  12   4   0    2.73    0.77
  13  -4   0    3.10    0.94
 -13  -4   0    4.29    1.08
  14  -4   0    4.66    1.17
 -14  -4   0    3.57    1.02
  15  -4   0   -0.81    0.84
 -15  -4   0    0.25    1.06
  16  -4   0    0.04    1.07
 -16  -4   0   -1.30    1.05
   0   5   0    0.09    0.24
  -1   5   0    7.20    0.55
   1   5   0    7.31    0.54
  -2  -5   0   10.17    0.50
  -2  -5   0   10.45    0.58
   2   5   0    9.82    0.60
  -2   5   0   10.38    0.68
  -3  -5   0    0.17    0.16
   3  -5   0    0.32    0.29
  -3  -5   0    0.11    0.21
   3   5   0   -0.06    0.23
   4  -5   0   50.62    1.71
  -4  -5   0   51.74    1.64
  -4  -5   0   50.95    1.39
   4   5   0   49.38    1.59
  -5  -5   0    2.09    0.39
   5  -5   0    1.51    0.43
  -5  -5   0    1.74    0.30
   5   5   0    1.83    0.38
   6  -5   0    0.99    0.48
  -7  -5   0   19.86    1.09
   7  -5   0   16.21    1.11
   7   5   0   17.07    0.97
  -8  -5   0    6.31    0.81
   8  -5   0    6.23    0.85
   8   5   0    6.63    0.76
   9  -5   0    1.69    0.72
  -9  -5   0    1.55    0.60
   9   5   0    1.52    0.58
 -10  -5   0    1.88    0.72
  10  -5   0    0.79    0.67
  10   5   0    0.91    0.59
 -11  -5   0    2.56    0.75
  11  -5   0    3.96    0.91
  11   5   0    4.09    0.77
  12  -5   0    3.85    1.09
 -12  -5   0    2.17    0.80
  13  -5   0    1.74    0.89
 -13  -5   0    1.65    0.94
  14  -5   0    0.24    0.85
 -14  -5   0   -1.03    0.78
 -15  -5   0    0.31    1.07
  15  -5   0    0.56    1.08
 -16  -5   0    0.00    1.11
   0   6   0    8.71    0.65
  -1   6   0    1.02    0.34
   1   6   0    0.70    0.28
  -2  -6   0   29.94    1.03
  -2  -6   0   30.69    1.11
   2   6   0   28.55    1.14
  -2   6   0   27.72    1.23
  -3  -6   0   35.60    1.11
   3  -6   0   35.93    1.37
  -3  -6   0   34.71    1.27
   3   6   0   34.36    1.28
  -4  -6   0    3.77    0.49
  -4  -6   0    3.57    0.36
   4  -6   0    4.20    0.61
   4   6   0    4.34    0.53
   5  -6   0   10.56    0.82
  -5  -6   0    9.41    0.73
  -5  -6   0   10.21    0.56
   5   6   0   10.96    0.74
  -6  -6   0    8.46    0.77
   6  -6   0    8.08    0.79
   6   6   0    7.87    0.69
   7  -6   0    0.54    0.49
  -7  -6   0    0.40    0.43
   7   6   0    0.73    0.43
  -8  -6   0    0.75    0.49
   8  -6   0    0.81    0.59
   8   6   0    0.88    0.45
  -9  -6   0    3.48    0.72
   9  -6   0    3.70    0.81
   9   6   0    5.26    0.75
  10  -6   0    3.93    0.92
 -10  -6   0    3.39    0.83
  10   6   0    4.38    0.72
  11  -6   0   -0.53    0.67
 -11  -6   0    1.65    0.79
 -12  -6   0    0.83    0.73
  12  -6   0    1.14    0.87
  13  -6   0   -0.95    0.74
 -13  -6   0   -1.32    0.66
  14  -6   0   -1.25    0.81
 -14  -6   0   -0.97    0.92
 -15  -6   0   -1.09    0.88
  15  -6   0   -0.93    1.01
   0   7   0   -0.19    0.27
   1   7   0   18.31    0.96
  -1   7   0   19.36    1.02
  -2  -7   0   48.84    1.54
  -2  -7   0   47.21    1.59
   2   7   0   48.02    1.67
  -2   7   0   50.05    1.79
  -3  -7   0   49.87    1.68
  -3  -7   0   48.75    1.50
   3  -7   0   48.70    1.73
   3   7   0   49.46    1.69
   4  -7   0   28.05    1.27
  -4  -7   0   24.21    1.11
  -4  -7   0   25.50    0.93
   4   7   0   25.33    1.13
   5  -7   0    1.15    0.50
  -5  -7   0    1.87    0.53
  -5  -7   0    1.88    0.44
   5   7   0    2.29    0.48
  -6  -7   0   -0.11    0.39
   6  -7   0    0.42    0.51
   6   7   0    0.16    0.36
   7  -7   0    2.55    0.64
  -7  -7   0    2.72    0.59
   7   7   0    2.67    0.54
  -8  -7   0    3.56    0.74
   8  -7   0    5.27    0.85
   8   7   0    4.31    0.67
   9  -7   0    0.86    0.66
  -9  -7   0    0.08    0.52
   9   7   0    0.60    0.47
 -10  -7   0    1.64    0.65
  10  -7   0    0.86    0.66
  11  -7   0    2.82    0.91
 -11  -7   0    1.00    0.74
  12  -7   0    0.43    0.81
 -12  -7   0   -0.09    0.72
 -13  -7   0    0.19    0.87
  13  -7   0    1.63    1.09
  14  -7   0   -0.30    0.92
 -14  -7   0   -0.93    0.91
 -15  -7   0   -1.36    0.97
   0   8   0    2.76    0.56
  -1  -8   0    6.32    0.56
   1   8   0    6.96    0.74
  -1   8   0    7.09    0.76
  -2  -8   0    0.30    0.30
  -2  -8   0   -0.40    0.22
   2   8   0   -0.02    0.34
  -2   8   0    0.04    0.38
  -3  -8   0   -0.37    0.24
  -3  -8   0   -0.19    0.24
   3  -8   0   -0.29    0.42
   3   8   0    0.34    0.35
  -4  -8   0    1.20    0.32
   4  -8   0    1.86    0.54
  -4  -8   0    1.47    0.42
   4   8   0    1.95    0.49
  -5  -8   0    9.91    0.83
   5  -8   0   11.08    1.06
   5   8   0   10.72    0.82
  -6  -8   0    4.61    0.71
   6  -8   0    4.73    0.83
   6   8   0    5.42    0.68
  -7  -8   0    2.15    0.62
   7  -8   0    1.97    0.66
   7   8   0    2.70    0.56
   8  -8   0    0.87    0.63
  -8  -8   0    0.55    0.53
   8   8   0    1.29    0.49
   9  -8   0    9.86    1.16
  -9  -8   0    9.74    1.11
  10  -8   0    0.51    0.79
 -10  -8   0    0.90    0.74
  11  -8   0   -1.15    0.67
 -11  -8   0    0.13    0.76
  12  -8   0   -0.94    0.77
 -12  -8   0    0.30    0.74
 -13  -8   0   -1.17    0.72
  13  -8   0    0.40    0.93
 -14  -8   0   -0.98    0.96
  14  -8   0   -0.89    0.91
 -15  -8   0    0.37    1.03
   0   9   0    0.04    0.41
  -1  -9   0   16.86    0.91
   1   9   0   18.13    1.06
  -1   9   0   16.92    1.12
  -2  -9   0   11.75    0.82
  -2  -9   0   12.57    0.82
  -2   9   0   12.70    1.05
   2   9   0   12.51    0.92
  -3  -9   0   18.75    1.06
   3  -9   0   18.58    1.17
  -3  -9   0   20.05    0.94
   3   9   0   18.64    1.10
   4  -9   0    3.97    0.74
  -4  -9   0    4.59    0.60
   4   9   0    4.91    0.71
  -5  -9   0   -0.07    0.42
   5  -9   0   -0.34    0.52
   5   9   0   -0.05    0.38
  -6  -9   0    4.39    0.73
   6  -9   0    3.61    0.74
   6   9   0    4.86    0.72
   7  -9   0   23.67    1.48
  -7  -9   0   21.67    1.40
   7   9   0   22.13    1.23
   8  -9   0    7.77    1.07
  -8  -9   0    6.61    0.91
  -9  -9   0   -0.52    0.53
   9  -9   0   -0.20    0.63
 -10  -9   0    0.09    0.65
  10  -9   0   -0.58    0.73
 -11  -9   0    2.67    0.85
  11  -9   0    3.90    1.02
  12  -9   0    4.25    1.12
 -12  -9   0    3.20    1.00
  13  -9   0    0.05    0.92
 -13  -9   0    0.70    1.01
 -14  -9   0   -0.42    0.91
   0  10   0    6.05    0.84
  -1 -10   0    8.79    0.74
  -1  10   0    7.96    0.92
   1  10   0   10.27    1.02
  -2 -10   0   37.42    1.50
  -2 -10   0   37.32    1.53
   2  10   0   37.05    1.64
  -2  10   0   34.34    1.73
   3 -10   0    6.00    0.85
  -3 -10   0    6.07    0.70
   3  10   0    7.00    0.88
   4 -10   0    5.73    0.86
  -4 -10   0    5.22    0.71
   4  10   0    5.49    0.78
  -5 -10   0    0.63    0.47
   5 -10   0    0.00    0.49
   5  10   0    0.09    0.41
  -6 -10   0    4.06    0.71
   6 -10   0    4.15    0.83
   6  10   0    4.47    0.74
  -7 -10   0   -0.17    0.50
   7 -10   0    0.04    0.62
  -8 -10   0    0.32    0.56
   8 -10   0    0.46    0.64
  -9 -10   0    0.59    0.70
   9 -10   0    1.84    0.80
  10 -10   0   -0.17    0.74
 -10 -10   0    0.24    0.68
 -11 -10   0    1.48    0.82
  11 -10   0    1.00    0.95
  12 -10   0   -1.01    0.92
 -12 -10   0   -0.39    0.82
 -13 -10   0   -0.55    0.96
   0 -11   0    0.19    0.33
   0  11   0   -0.25    0.41
  -1 -11   0    1.65    0.44
   1  11   0    0.64    0.55
  -1  11   0    1.39    0.58
  -2 -11   0    6.18    0.72
  -2 -11   0    7.16    0.78
   2  11   0    5.33    0.83
  -2  11   0    5.04    0.85
   3 -11   0    2.74    0.72
  -3 -11   0    2.15    0.51
   3  11   0    2.30    0.60
  -4 -11   0    3.23    0.58
   4 -11   0    3.56    0.74
   4  11   0    3.72    0.70
  -5 -11   0    1.65    0.59
   5 -11   0    1.69    0.63
   5  11   0    1.59    0.63
  -6 -11   0    6.08    0.86
   6 -11   0    5.08    0.89
   7 -11   0    9.94    1.19
  -7 -11   0    9.12    1.07
   8 -11   0   16.58    1.46
  -8 -11   0   15.83    1.42
  -9 -11   0   -0.25    0.63
   9 -11   0    0.79    0.78
  10 -11   0   -0.25    0.85
 -10 -11   0   -0.22    0.72
 -11 -11   0    2.56    1.02
  11 -11   0    3.39    1.15
 -12 -11   0    3.14    1.04
  12 -11   0    1.06    1.72
 -13 -11   0   -0.42    0.97
   0 -12   0    0.67    0.35
   0  12   0   -0.05    0.51
  -1 -12   0    1.38    0.45
  -1 -12   0    0.14    0.38
   1  12   0    0.26    0.53
  -1  12   0   -0.13    0.50
   2 -12   0   10.43    1.03
  -2 -12   0   11.56    0.95
   2  12   0   10.51    1.12
  -3 -12   0    8.93    0.95
   3 -12   0   12.50    1.22
   3  12   0    9.20    1.07
  -4 -12   0    1.16    0.47
   4 -12   0    0.88    0.64
   5 -12   0    0.00    0.58
  -5 -12   0    0.12    0.54
   6 -12   0    0.05    0.59
  -6 -12   0    0.91    0.63
   7 -12   0   -0.30    0.59
  -7 -12   0   -0.57    0.54
   8 -12   0    0.11    0.70
  -8 -12   0   -0.41    0.61
   9 -12   0   -1.18    0.78
  -9 -12   0   -0.39    0.69
 -10 -12   0   -0.87    0.74
  10 -12   0   -0.51    0.84
 -11 -12   0   -1.38    0.69
  11 -12   0   -1.19    0.93
 -12 -12   0   -2.04    0.82
   0 -13   0    0.55    0.37
   0  13   0   -0.28    0.48
  -1 -13   0    2.75    0.59
  -1  13   0    3.41    0.82
   1  13   0    2.92    0.73
   2 -13   0    4.64    0.82
  -2 -13   0    3.84    0.69
   2  13   0    4.06    0.82
   3 -13   0    3.83    0.78
  -3 -13   0    4.08    0.70
   4 -13   0    0.70    0.66
  -4 -13   0   -0.21    0.45
  -5 -13   0   -0.22    0.55
   5 -13   0    0.53    0.63
  -6 -13   0    4.72    0.91
   6 -13   0    6.88    1.14
  -7 -13   0    9.00    1.19
   7 -13   0   11.30    1.34
  -8 -13   0    7.83    1.18
   8 -13   0    9.43    1.28
   9 -13   0   -0.90    0.82
  -9 -13   0   -0.60    0.62
  10 -13   0   -0.57    1.39
 -10 -13   0   -0.65    0.79
 -11 -13   0    1.16    0.91
   0  14   0    5.92    1.05
  -1  14   0    3.53    0.93
   1  14   0    4.70    0.91
   2 -14   0    0.73    0.55
  -2 -14   0    0.66    0.51
   3 -14   0    0.95    0.67
  -3 -14   0    0.08    0.46
  -4 -14   0    0.38    0.54
   4 -14   0    1.08    0.71
   5 -14   0   -0.11    0.62
  -5 -14   0    0.77    0.64
  -6 -14   0    0.20    0.66
   6 -14   0   -0.06    0.74
  -7 -14   0    0.58    0.69
   7 -14   0    0.42    0.81
   8 -14   0    3.17    1.09
  -8 -14   0    1.22    0.79
  -9 -14   0    0.72    0.87
   0  15   0    0.08    0.73
   1 -15   0    4.80    0.86
   2 -15   0   15.61    1.30
   3 -15   0    5.27    0.92
  -3 -15   0    4.21    0.82
   4 -15   0    0.24    0.61
  -4 -15   0    0.20    0.61
  -5 -15   0    0.25    0.64
   5 -15   0    0.92    0.75
   6 -15   0    1.51    0.88
  -6 -15   0    0.41    0.72
  -7 -15   0    1.40    0.85
   7 -15   0    1.01    0.84
  -8 -15   0    2.08    0.92
   1 -16   0    4.66    1.11
   2 -16   0    1.59    0.66
   3 -16   0    1.14    0.74
   4 -16   0    0.08    0.72
  -5 -16   0    0.42    0.69
   5 -16   0    0.48    0.80
  -6 -16   0   -0.78    0.67
  17   0  -1   -0.81    0.86
  16   0  -1   -0.86    0.87
  15   0  -1    0.28    0.78
  14   0  -1   -0.95    0.77
  13   0  -1    1.64    0.77
 -13   0   1    4.79    0.96
 -12   0   1    0.10    0.72
  12   0  -1    0.42    0.66
 -11   0   1    1.15    0.76
  11   0  -1   -0.31    0.65
 -10   0   1    0.25    0.67
  10   0  -1   -0.17    0.63
  -9   0   1    0.31    0.58
   9   0  -1   -0.06    0.59
  -8   0   1    0.28    0.43
   8   0  -1   -0.48    0.46
  -7   0   1    0.56    0.42
   7   0  -1   -0.47    0.34
   6   0  -1    0.31    0.36
  -6   0   1   -0.10    0.29
   5   0  -1    0.46    0.31
  -5   0   1    0.04    0.27
  -4   0   1    0.24    0.25
   4   0  -1    0.00    0.28
  -3   0   1    0.12    0.20
   3   0  -1    0.18    0.23
   2   0  -1   -0.04    0.21
   1   0  -1   -0.84    0.02
   0   0  -1    0.01    0.01
   1   0   1   -0.84    0.09
  -2   0  -1   -0.23    0.23
   2   0   1   -0.11    0.14
  -3   0  -1   -0.20    0.24
  -3   0  -1    0.42    0.20
   3   0   1   -0.04    0.22
  -4   0  -1    0.02    0.24
  -4   0  -1   -0.74    0.26
   4   0   1   -0.05    0.25
  -5   0  -1    0.21    0.27
  -5   0  -1   -0.21    0.28
   5   0   1   -0.30    0.26
  -6   0  -1   -0.65    0.32
  -6   0  -1   -0.35    0.31
   6   0   1    0.43    0.36
   7   0   1   -0.42    0.38
  -7   0  -1   -0.10    0.37
  -7   0  -1   -0.09    0.37
  -8   0  -1   -0.36    0.44
  -8   0  -1    0.19    0.44
   8   0   1    0.36    0.49
  -9   0  -1   -0.12    0.50
   9   0   1    0.89    0.60
  -9   0  -1   -0.35    0.50
  10   0   1   -0.30    0.61
 -10   0  -1   -0.37    0.56
 -10   0  -1    0.13    0.62
  11   0   1   -0.13    0.58
 -11   0  -1    0.58    0.71
 -12   0  -1   -0.45    0.72
  12   0   1   -0.44    0.62
 -13   0  -1    0.44    0.84
  13   0   1   -0.69    0.72
 -14   0  -1   -0.21    0.88
  14   0   1   -0.99    0.77
  15   0   1    0.14    0.85
  17  -1  -1    0.50    1.04
  16  -1  -1    3.83    1.19
  16   1  -1    3.36    1.08
  15  -1  -1    5.45    1.16
  15   1  -1    6.35    1.21
 -14  -1   1    3.30    1.14
  14  -1  -1    4.30    1.01
  14   1  -1    5.35    1.10
  13  -1  -1    2.88    0.98
 -13  -1   1    3.64    0.92
  13   1  -1    4.02    0.99
 -12  -1   1   21.94    1.70
  12  -1  -1   20.35    1.51
  12   1  -1   19.60    1.44
  11  -1  -1    1.80    0.73
 -11  -1   1    1.00    0.75
  11   1  -1    1.09    0.65
 -10  -1   1   10.01    1.06
  10  -1  -1   11.42    1.14
  10   1  -1   11.01    1.14
   9  -1  -1    1.26    0.65
  -9  -1   1    0.66    0.60
   9   1  -1    0.80    0.55
  -9   1   1    1.63    0.64
   8  -1  -1    0.31    0.47
  -8  -1   1    0.71    0.45
  -8   1   1   -0.01    0.46
   8   1  -1    0.60    0.51
  -7  -1   1   38.66    1.48
   7  -1  -1   34.46    1.38
  -7   1   1   34.46    1.45
   7   1  -1   37.28    1.40
   6  -1  -1   77.54    2.44
  -6  -1   1   93.21    2.52
  -6  -1   1   92.29    2.37
   6   1  -1   90.47    2.49
  -6   1   1   83.97    2.50
  -5  -1   1   87.07    2.19
   5  -1  -1   77.51    2.29
  -5  -1   1   87.28    2.33
   5   1  -1   86.80    2.33
  -5   1   1   78.45    2.30
  -4  -1   1   19.08    0.79
   4  -1  -1   17.88    0.78
   4   1  -1   21.37    0.83
  -3  -1   1   10.61    0.52
   3  -1  -1   10.16    0.52
   3   1  -1   11.45    0.53
  -2  -1   1   10.13    0.43
   2  -1  -1   10.72    0.44
   2   1  -1   10.54    0.44
   1  -1  -1   75.77    1.83
   1   1   1   19.58    0.51
   2  -1   1   27.41    0.83
  -2  -1  -1   26.49    0.80
  -2   1  -1   27.37    0.90
   2   1   1   26.67    0.77
  -3  -1  -1    0.60    0.19
  -3  -1  -1    1.34    0.29
   3  -1   1    1.15    0.28
   3   1   1    0.78    0.25
  -3   1  -1    0.38    0.27
  -3   1  -1    0.93    0.23
  -4  -1  -1    0.63    0.30
  -4  -1  -1    1.16    0.28
   4  -1   1    0.67    0.28
  -4   1  -1    0.95    0.27
  -4   1  -1    0.55    0.35
   4   1   1    0.77    0.27
   5  -1   1   29.43    1.09
  -5  -1  -1   30.42    1.10
  -5  -1  -1   30.80    1.12
  -5   1  -1   30.34    1.10
  -5   1  -1   29.48    1.21
   5   1   1   29.91    1.08
  -6  -1  -1    2.30    0.40
   6  -1   1    2.11    0.47
  -6  -1  -1    2.30    0.44
  -6   1  -1    2.39    0.42
  -6   1  -1    2.69    0.53
   6   1   1    1.87    0.45
  -7  -1  -1   32.75    1.34
  -7  -1  -1   30.47    1.29
   7  -1   1   31.11    1.29
   7   1   1   30.47    1.27
  -7   1  -1   31.39    1.31
  -7   1  -1   28.55    1.38
  -8  -1  -1   21.68    1.17
   8  -1   1   25.52    1.23
  -8  -1  -1   25.49    1.29
  -8   1  -1   25.37    1.35
   8   1   1   24.32    1.22
  -8   1  -1   23.77    1.28
   9  -1   1   12.02    1.07
  -9  -1  -1   13.21    1.05
  -9  -1  -1   13.03    1.05
  -9   1  -1   13.02    1.11
  -9   1  -1   13.00    1.15
   9   1   1   12.18    1.04
  10  -1   1   25.88    1.42
 -10  -1  -1   25.23    1.41
 -10  -1  -1   25.72    1.57
  10   1   1   26.50    1.46
 -10   1  -1   27.25    1.63
  11  -1   1    5.67    0.98
 -11  -1  -1    5.04    0.91
  11   1   1    8.15    1.02
 -11   1  -1    4.75    0.93
 -12  -1  -1    1.85    0.81
  12  -1   1    3.17    0.89
  12   1   1    4.51    0.89
 -12   1  -1    2.21    0.88
 -13  -1  -1    9.64    1.21
  13  -1   1   11.28    1.30
  13   1   1    9.92    1.14
 -14  -1  -1    2.27    1.00
  14  -1   1    3.26    0.95
  14   1   1    5.39    1.06
  15  -1   1   -0.96    0.75
 -15  -1  -1   -0.51    0.97
  16  -1   1    0.22    0.98
  17  -2  -1   -1.22    1.03
  16  -2  -1   -0.11    0.87
 -16  -2   1   -0.38    1.06
 -15  -2   1   -0.08    0.85
  15  -2  -1    0.33    0.84
  15   2  -1    0.28    0.79
 -14  -2   1    1.18    0.90
  14  -2  -1    1.02    0.86
  14   2  -1    2.75    0.94
  13  -2  -1    0.69    0.76
 -13  -2   1    0.10    0.86
  13   2  -1    0.71    0.67
 -12  -2   1    8.02    1.14
  12  -2  -1    6.37    1.00
  12   2  -1    6.66    1.03
 -11  -2   1    1.36    0.80
  11  -2  -1    1.34    0.71
  11   2  -1    0.39    0.68
  10  -2  -1    0.58    0.63
 -10  -2   1    0.71    0.69
  10   2  -1   -0.39    0.59
   9  -2  -1    0.45    0.60
  -9  -2   1    0.61    0.59
   9   2  -1    0.41    0.60
  -8  -2   1    4.05    0.65
   8  -2  -1    3.76    0.65
   8   2  -1    5.67    0.75
   7  -2  -1    0.47    0.46
  -7  -2   1    0.69    0.38
  -7  -2   1    0.63    0.30
   7   2  -1    0.65    0.44
   6  -2  -1    9.25    0.69
  -6  -2   1    9.73    0.75
  -6  -2   1    9.16    0.52
   6   2  -1   10.44    0.73
  -5  -2   1    9.05    0.66
   5  -2  -1    9.84    0.66
   5   2  -1   10.14    0.65
   4  -2  -1    0.98    0.30
  -4  -2   1    0.94    0.30
   4   2  -1    0.68    0.30
  -3  -2   1    6.01    0.41
   3  -2  -1    5.53    0.43
   3   2  -1    6.03    0.42
   2  -2  -1   24.24    0.77
  -2  -2   1   22.34    0.74
   2   2  -1   23.85    0.76
   1  -2  -1   13.26    0.47
   1   2  -1   12.98    0.51
   0   2   1   30.76    0.81
   0   2  -1   27.53    0.87
  -1   2  -1    0.03    0.18
   1   2   1    0.18    0.11
  -1   2  -1    0.20    0.20
  -2  -2  -1    5.45    0.35
   2  -2   1    5.40    0.39
  -2   2  -1    5.43    0.46
   2   2   1    5.38    0.32
  -3  -2  -1   33.15    1.00
   3  -2   1   33.23    1.07
  -3  -2  -1   32.27    1.04
  -3   2  -1   32.20    1.18
   3   2   1   32.45    0.97
  -4  -2  -1   17.07    0.72
  -4  -2  -1   17.47    0.75
   4  -2   1   17.43    0.76
   4   2   1   17.02    0.72
  -4   2  -1   15.78    0.84
  -5  -2  -1    7.66    0.60
  -5  -2  -1    8.06    0.56
   5  -2   1    7.31    0.57
   5   2   1    8.28    0.57
  -5   2  -1    8.05    0.67
  -6  -2  -1    3.33    0.47
  -6  -2  -1    2.53    0.45
   6  -2   1    2.35    0.45
  -6   2  -1    3.31    0.61
   6   2   1    3.10    0.49
   7  -2   1   -0.10    0.42
  -7  -2  -1   -0.03    0.38
  -7  -2  -1    0.05    0.36
  -7   2  -1   -0.20    0.43
   7   2   1   -0.76    0.32
  -8  -2  -1    2.30    0.53
  -8  -2  -1    2.55    0.54
   8  -2   1    3.43    0.68
   8   2   1    2.82    0.61
   9  -2   1    0.14    0.59
  -9  -2  -1   -0.18    0.48
  -9  -2  -1   -0.56    0.44
   9   2   1    0.10    0.51
  10  -2   1    0.05    0.66
 -10  -2  -1    0.07    0.56
  10   2   1   -0.40    0.54
  11  -2   1    3.70    0.88
 -11  -2  -1    2.26    0.81
  11   2   1    3.48    0.79
 -12  -2  -1    3.89    0.87
  12  -2   1    3.93    0.89
  12   2   1    3.17    0.79
 -13  -2  -1   -0.25    0.86
  13  -2   1   -0.02    0.78
  13   2   1    0.76    0.73
 -14  -2  -1   -0.57    0.89
  14  -2   1   -1.00    0.69
  15  -2   1   -1.08    0.89
 -15  -2  -1   -1.13    0.88
 -16  -2  -1   -0.89    1.05
  16  -2   1   -1.88    0.95
 -17  -3   1   -0.76    1.15
 -16  -3   1   -1.02    1.01
  16  -3  -1    0.42    0.95
  15  -3  -1    3.14    1.02
 -15  -3   1    2.71    1.14
  14  -3  -1    2.19    1.00
 -14  -3   1   -0.31    0.91
  14   3  -1    1.70    0.74
 -13  -3   1    0.70    0.82
  13  -3  -1   -0.11    0.84
  13   3  -1    1.05    0.68
  12  -3  -1    9.64    1.19
 -12  -3   1    7.59    1.05
  12   3  -1    8.91    1.04
  11  -3  -1   -0.42    0.61
 -11  -3   1    0.17    0.62
  11   3  -1   -0.37    0.57
 -10  -3   1   15.17    1.33
  10  -3  -1   13.81    1.17
  10   3  -1   15.00    1.19
  -9  -3   1   13.47    1.10
   9  -3  -1   13.06    1.15
   9   3  -1   11.89    0.96
   8  -3  -1    0.59    0.55
  -8  -3   1    0.59    0.50
  -8  -3   1    0.14    0.29
   8   3  -1    0.05    0.45
   7  -3  -1   36.58    1.48
  -7  -3   1   38.02    1.19
  -7  -3   1   37.05    1.49
   7   3  -1   36.67    1.44
  -6  -3   1   61.10    1.93
  -6  -3   1   58.67    1.58
   6  -3  -1   55.65    1.87
   6   3  -1   59.84    1.85
   5  -3  -1   37.08    1.31
  -5  -3   1   35.50    1.29
   5   3  -1   34.30    1.24
   4  -3  -1   20.67    0.86
  -4  -3   1   19.71    0.83
   4   3  -1   20.56    0.82
   3  -3  -1   54.82    1.56
  -3  -3   1   51.07    1.49
   3   3  -1   50.81    1.51
  -2  -3   1    5.60    0.38
   2  -3  -1    6.25    0.42
   2   3  -1    5.35    0.40
  -1  -3   1   53.55    1.40
  -1   3   1   54.56    1.50
   1   3  -1   53.00    1.51
   0   3  -1    4.12    0.38
   0   3   1    3.84    0.34
  -1  -3  -1    0.86    0.20
  -1   3  -1    1.16    0.31
   1   3   1    1.29    0.22
  -2  -3  -1   57.20    1.48
   2  -3   1   55.27    1.62
  -2  -3  -1   56.51    1.58
   2   3   1   57.28    1.50
  -2   3  -1   56.52    1.67
  -3  -3  -1    5.58    0.42
  -3  -3  -1    5.64    0.40
   3  -3   1    4.74    0.47
   3   3   1    5.01    0.38
  -4  -3  -1   61.08    1.66
  -4  -3  -1   62.72    1.81
   4  -3   1   57.99    1.81
   4   3   1   61.00    1.69
  -5  -3  -1   39.20    1.24
   5  -3   1   38.45    1.37
  -5  -3  -1   37.50    1.33
   5   3   1   37.82    1.26
  -6  -3  -1    0.87    0.34
   6  -3   1    0.53    0.38
  -6  -3  -1    0.20    0.30
   6   3   1    0.60    0.34
  -7  -3  -1   15.03    0.99
  -7  -3  -1   14.08    0.82
   7  -3   1   15.10    0.93
   7   3   1   13.52    0.86
  -8  -3  -1    7.25    0.81
  -8  -3  -1    7.89    0.78
   8  -3   1    7.57    0.84
   8   3   1    7.95    0.83
  -9  -3  -1   32.45    1.56
   9  -3   1   30.28    1.59
   9   3   1   30.32    1.45
  10  -3   1    4.06    0.84
 -10  -3  -1    4.14    0.77
  10   3   1    5.90    0.86
 -11  -3  -1   -0.27    0.55
  11  -3   1   -0.27    0.58
  11   3   1    0.41    0.58
  12  -3   1   10.38    1.24
 -12  -3  -1    8.10    1.11
  12   3   1   10.48    1.13
 -13  -3  -1    3.08    1.05
  13  -3   1    3.54    0.98
 -14  -3  -1    1.28    0.98
  14  -3   1    2.59    1.06
 -15  -3  -1   -1.77    0.93
  15  -3   1   -0.30    0.85
 -16  -3  -1   -1.87    1.03
  16  -3   1   -1.63    0.98
  16  -4  -1   -1.14    1.03
 -16  -4   1   -0.90    0.91
 -15  -4   1   -1.30    0.85
  15  -4  -1   -1.45    0.80
 -14  -4   1   -0.79    0.90
  14  -4  -1   -1.26    0.79
  14   4  -1    0.26    1.04
  13  -4  -1   -0.14    0.84
 -13  -4   1   -0.30    0.84
  13   4  -1    0.73    0.68
 -12  -4   1   -0.55    0.75
  12  -4  -1   -1.14    0.63
  12   4  -1    0.77    0.68
  11  -4  -1    2.90    0.81
 -11  -4   1    1.44    0.69
  11   4  -1    2.83    0.73
  10  -4  -1    7.36    1.02
 -10  -4   1    8.82    1.05
  10   4  -1    8.04    1.00
   9  -4  -1    1.12    0.63
  -9  -4   1    1.24    0.59
   9   4  -1   -0.27    0.51
   8  -4  -1    0.66    0.52
  -8  -4   1    0.50    0.48
   8   4  -1    0.27    0.42
  -7  -4   1    0.35    0.42
   7  -4  -1   -0.15    0.40
  -7  -4   1    0.17    0.23
   7   4  -1    0.14    0.38
  -6  -4   1   -0.17    0.29
   6  -4  -1   -0.05    0.34
   6   4  -1   -0.22    0.30
   5  -4  -1    0.17    0.31
  -5  -4   1    0.38    0.28
   5   4  -1    0.41    0.29
  -4  -4   1   -0.03    0.21
   4  -4  -1    0.19    0.28
   4   4  -1   -0.35    0.21
  -3  -4   1   23.21    0.87
   3  -4  -1   22.06    0.89
   3   4  -1   20.96    0.88
   2  -4  -1    2.50    0.38
  -2  -4   1    2.49    0.28
   2   4  -1    2.81    0.36
  -1  -4   1   21.53    0.74
   1   4  -1   22.69    0.88
  -1   4   1   21.82    0.86
   0   4   1    1.39    0.28
  -1  -4  -1   92.91    2.36
   1   4   1   91.45    2.36
  -1   4  -1   91.88    2.50
  -2  -4  -1   24.11    0.79
  -2   4  -1   21.94    0.96
   2   4   1   23.35    0.83
  -3  -4  -1    0.42    0.21
  -3  -4  -1    0.25    0.20
   3  -4   1    0.38    0.30
   3   4   1    0.16    0.20
  -4  -4  -1   49.92    1.61
   4  -4   1   52.65    1.68
  -4  -4  -1   52.57    1.46
   4   4   1   50.92    1.52
   5  -4   1    5.06    0.59
  -5  -4  -1    5.24    0.50
  -5  -4  -1    6.01    0.55
   5   4   1    5.00    0.47
   6  -4   1    2.98    0.53
  -6  -4  -1    3.06    0.44
  -6  -4  -1    2.67    0.49
   6   4   1    3.33    0.48
  -7  -4  -1   10.04    0.73
   7  -4   1   11.14    0.88
  -7  -4  -1   12.21    0.88
   7   4   1   12.45    0.81
  -8  -4  -1    0.49    0.50
   8  -4   1   -0.34    0.46
   8   4   1   -0.21    0.42
   9  -4   1    0.48    0.63
  -9  -4  -1    0.53    0.54
   9   4   1    0.08    0.50
  10  -4   1    5.78    1.00
 -10  -4  -1    4.09    0.77
  10   4   1    5.03    0.81
 -11  -4  -1    1.79    0.77
  11  -4   1    2.13    0.86
  11   4   1    2.75    0.71
 -12  -4  -1    1.06    0.72
  12  -4   1    0.70    0.82
 -13  -4  -1   -0.62    0.78
  13  -4   1    0.00    0.85
  14  -4   1   -1.93    0.84
 -14  -4  -1   -1.06    0.88
 -15  -4  -1   -0.97    0.85
  15  -4   1   -0.03    0.87
  16  -4   1    1.56    1.35
 -16  -4  -1   -2.67    1.04
 -16  -5   1   -1.34    1.09
 -15  -5   1    0.22    0.96
  15  -5  -1   -1.75    0.90
  14  -5  -1    0.30    0.85
 -14  -5   1   -0.19    0.96
 -13  -5   1   -0.83    0.82
  13  -5  -1   -1.03    0.79
  13   5  -1    0.32    0.97
 -12  -5   1    3.21    0.85
  12  -5  -1    3.79    0.97
  12   5  -1    4.00    0.87
  11  -5  -1   10.31    1.22
 -11  -5   1   10.13    1.19
  11   5  -1   11.90    1.12
  10  -5  -1    4.05    0.86
 -10  -5   1    2.09    0.69
  10   5  -1    3.87    0.80
   9  -5  -1   -0.05    0.57
  -9  -5   1   -0.14    0.51
   9   5  -1    0.03    0.49
  -8  -5   1    1.43    0.53
   8  -5  -1    0.45    0.52
   8   5  -1    0.61    0.48
  -7  -5   1   40.49    1.67
   7  -5  -1   40.16    1.65
   7   5  -1   42.52    1.58
  -6  -5   1   77.58    2.36
   6  -5  -1   75.31    2.39
   6   5  -1   74.48    2.30
  -5  -5   1   12.62    0.79
   5  -5  -1   11.17    0.80
   5   5  -1   11.09    0.73
   4  -5  -1    0.93    0.37
  -4  -5   1    0.33    0.26
   4   5  -1   -0.07    0.29
   3  -5  -1    1.98    0.39
  -3  -5   1    1.64    0.28
  -3  -5   1    2.59    0.26
   3   5  -1    2.23    0.38
   2  -5  -1   14.89    0.73
  -2  -5   1   12.56    0.61
   2   5  -1   14.20    0.74
  -1  -5   1   -0.02    0.16
   1   5  -1   -0.21    0.27
  -1   5   1   -0.24    0.28
   0   5   1   63.12    1.95
   0   5  -1   77.30    2.10
  -1  -5  -1   10.61    0.57
  -1   5  -1   10.71    0.68
   1   5   1   10.83    0.59
  -2  -5  -1   48.20    1.50
  -2  -5  -1   47.34    1.40
  -2   5  -1   47.42    1.63
   2   5   1   49.21    1.46
  -3  -5  -1   51.96    1.63
  -3  -5  -1   52.82    1.46
   3  -5   1   49.96    1.66
   3   5   1   48.77    1.52
  -4  -5  -1   82.61    2.33
   4  -5   1   75.55    2.35
  -4  -5  -1   79.46    2.09
   4   5   1   78.48    2.20
   5  -5   1   51.77    1.78
  -5  -5  -1   52.02    1.74
  -5  -5  -1   49.97    1.50
   5   5   1   50.41    1.62
   6  -5   1    3.95    0.62
  -6  -5  -1    3.12    0.50
  -6  -5  -1    4.16    0.48
   6   5   1    4.47    0.54
   7  -5   1    7.51    0.85
  -7  -5  -1    7.25    0.78
   7   5   1    7.27    0.71
   8  -5   1   10.75    1.08
  -8  -5  -1   11.06    0.98
   8   5   1    9.34    0.88
   9  -5   1    0.50    0.67
  -9  -5  -1    0.95    0.62
   9   5   1   -0.22    0.46
  10  -5   1    0.47    0.64
 -10  -5  -1    0.15    0.58
  10   5   1    1.10    0.55
 -11  -5  -1    0.41    0.62
  11  -5   1    0.73    0.79
  12  -5   1    2.04    0.88
 -12  -5  -1    1.42    0.75
  13  -5   1    3.15    1.02
 -13  -5  -1    3.97    1.01
  14  -5   1    0.40    0.88
 -14  -5  -1   -0.08    0.94
  15  -5   1   -0.97    0.97
 -15  -5  -1    0.34    0.94
 -16  -6   1   -1.04    1.10
  15  -6  -1   -0.12    1.06
 -15  -6   1   -0.61    1.07
 -14  -6   1    4.28    1.11
  14  -6  -1    4.02    1.12
  13  -6  -1    3.70    1.11
 -13  -6   1    2.31    0.97
 -12  -6   1    1.41    0.84
  12  -6  -1    0.91    0.93
  12   6  -1    2.19    1.03
  11  -6  -1    0.18    0.78
 -11  -6   1   -0.13    0.68
  11   6  -1    1.52    0.61
 -10  -6   1    1.72    0.68
  10  -6  -1    1.23    0.76
  10   6  -1    1.55    0.59
   9  -6  -1    0.47    0.60
  -9  -6   1    0.56    0.54
   9   6  -1    0.87    0.50
  -8  -6   1   15.76    1.13
   8  -6  -1   13.91    1.18
   8   6  -1   15.25    1.04
  -7  -6   1    0.37    0.50
   7  -6  -1    0.34    0.56
   7   6  -1    0.89    0.43
   6  -6  -1    5.10    0.68
  -6  -6   1    4.58    0.63
   6   6  -1    4.55    0.61
  -5  -6   1    2.79    0.47
  -5  -6   1    3.62    0.33
   5  -6  -1    3.03    0.54
   5   6  -1    3.89    0.54
   4  -6  -1    0.40    0.35
  -4  -6   1    0.66    0.28
  -4  -6   1    0.48    0.19
   4   6  -1    0.64    0.33
  -3  -6   1   12.84    0.71
   3  -6  -1   11.93    0.74
  -3  -6   1   13.13    0.57
   3   6  -1   13.13    0.77
   2  -6  -1   11.75    0.73
  -2  -6   1   12.24    0.65
   2   6  -1   13.78    0.78
  -1  -6   1    0.08    0.19
  -1   6   1    0.59    0.30
   1   6  -1    0.85    0.35
   0   6   1   16.88    0.84
   0   6  -1   18.71    0.93
  -1  -6  -1    8.29    0.57
  -1   6  -1    8.22    0.65
   1   6   1    8.85    0.60
  -2  -6  -1    3.40    0.39
  -2  -6  -1    2.65    0.39
  -2   6  -1    2.79    0.50
   2   6   1    2.57    0.40
  -3  -6  -1   12.43    0.60
  -3  -6  -1   11.45    0.70
   3  -6   1   11.06    0.75
   3   6   1   11.46    0.66
   4  -6   1    1.19    0.45
  -4  -6  -1    0.19    0.28
  -4  -6  -1    0.63    0.28
   4   6   1    0.82    0.31
  -5  -6  -1    0.68    0.37
  -5  -6  -1   -0.03    0.28
   5  -6   1   -0.03    0.36
   5   6   1    0.51    0.31
  -6  -6  -1    0.05    0.39
   6  -6   1    0.27    0.49
  -6  -6  -1   -0.40    0.46
   6   6   1    0.15    0.34
  -7  -6  -1    0.45    0.43
   7  -6   1    0.63    0.59
   7   6   1    1.16    0.43
   8  -6   1    0.69    0.58
  -8  -6  -1   -0.12    0.43
   8   6   1    0.85    0.44
   9  -6   1    8.15    1.03
  -9  -6  -1    6.97    0.92
   9   6   1    7.03    0.81
  10  -6   1    3.87    0.89
 -10  -6  -1    4.07    0.79
 -11  -6  -1    3.72    0.93
  11  -6   1    3.52    1.01
 -12  -6  -1    1.78    0.89
  12  -6   1    1.59    0.96
  13  -6   1   -0.89    0.78
 -13  -6  -1    0.07    0.84
  14  -6   1   -1.35    0.82
 -14  -6  -1   -0.66    0.79
  15  -6   1   -0.65    1.02
 -15  -6  -1   -0.41    1.06
 -15  -7   1   -1.54    1.05
  15  -7  -1   -0.02    1.19
  14  -7  -1   -0.31    1.01
 -14  -7   1    0.28    0.87
 -13  -7   1   -0.42    0.85
  13  -7  -1   -0.77    0.88
  12  -7  -1    0.73    0.83
 -12  -7   1    0.04    0.73
 -11  -7   1    1.55    0.80
  11  -7  -1    3.26    0.93
  10  -7  -1    6.08    1.04
 -10  -7   1    4.98    0.93
  10   7  -1    7.73    0.93
  -9  -7   1   -0.22    0.60
   9  -7  -1   -0.64    0.54
   9   7  -1    0.21    0.44
  -8  -7   1   -0.05    0.55
   8  -7  -1    0.70    0.66
   8   7  -1    0.46    0.47
  -7  -7   1   10.68    0.94
   7  -7  -1   12.02    1.07
   7   7  -1   10.53    0.88
  -6  -7   1    6.08    0.70
   6  -7  -1    4.25    0.70
   6   7  -1    6.34    0.73
  -5  -7   1    0.89    0.36
   5  -7  -1    1.17    0.46
   5   7  -1    0.60    0.39
  -4  -7   1    1.21    0.25
   4  -7  -1    1.49    0.49
  -4  -7   1    1.10    0.35
   4   7  -1    0.72    0.35
   3  -7  -1   25.12    1.15
  -3  -7   1   25.94    0.93
  -3  -7   1   24.97    1.08
   3   7  -1   23.75    1.13
  -2  -7   1    0.37    0.24
  -2   7   1    0.10    0.37
   2   7  -1    0.64    0.33
  -1  -7   1   29.25    1.06
   1   7  -1   29.02    1.26
  -1   7   1   27.98    1.22
   0   7   1    1.53    0.41
   0   7  -1    1.81    0.46
  -1  -7  -1   -0.61    0.23
   1   7   1   -0.01    0.28
  -1   7  -1   -0.24    0.32
  -2  -7  -1    0.30    0.28
  -2  -7  -1    0.67    0.28
   2   7   1    0.69    0.33
  -2   7  -1    0.86    0.42
  -3  -7  -1    6.29    0.62
  -3  -7  -1    5.47    0.48
   3  -7   1    6.33    0.71
   3   7   1    5.89    0.56
  -4  -7  -1   32.90    1.15
   4  -7   1   32.21    1.40
  -4  -7  -1   34.48    1.40
   4   7   1   33.67    1.30
   5  -7   1   13.82    1.02
  -5  -7  -1   13.54    0.73
  -5  -7  -1   13.51    0.89
   5   7   1   15.04    0.87
   6  -7   1    1.58    0.56
  -6  -7  -1    0.73    0.47
   6   7   1    0.47    0.39
   7  -7   1    1.06    0.58
  -7  -7  -1    2.00    0.54
   7   7   1    1.98    0.48
  -8  -7  -1    9.10    0.94
   8  -7   1   10.99    1.13
   8   7   1   10.14    0.90
  -9  -7  -1    0.31    0.60
   9  -7   1    0.39    0.70
  10  -7   1    0.36    0.66
 -10  -7  -1    0.01    0.59
 -11  -7  -1    0.48    0.68
  11  -7   1    0.38    0.82
  12  -7   1    1.52    0.89
 -12  -7  -1    1.21    0.83
  13  -7   1   -0.08    0.88
 -13  -7  -1    0.03    0.79
  14  -7   1   -0.11    0.91
 -14  -7  -1   -0.28    0.90
 -15  -7  -1   -0.68    1.04
 -15  -8   1   -1.63    1.04
 -14  -8   1    0.49    0.94
  14  -8  -1    1.88    1.06
 -13  -8   1    1.35    0.98
  13  -8  -1    1.55    0.95
  12  -8  -1    0.84    0.98
 -12  -8   1    1.53    0.83
  11  -8  -1    0.59    0.86
 -11  -8   1    0.25    0.78
  10  -8  -1   -0.40    0.62
 -10  -8   1   -0.46    0.63
   9  -8  -1    5.88    0.96
  -9  -8   1    4.58    0.80
   9   8  -1    5.37    0.78
  -8  -8   1   12.23    1.13
   8  -8  -1   11.22    1.10
   8   8  -1   11.77    0.97
   7  -8  -1    1.33    0.61
  -7  -8   1    0.49    0.55
   7   8  -1    1.03    0.50
  -6  -8   1   -0.05    0.44
   6  -8  -1   -0.09    0.47
   6   8  -1    1.01    0.45
  -5  -8   1   13.66    0.98
   5  -8  -1   12.56    0.95
   5   8  -1   13.81    0.93
   4  -8  -1   23.52    1.21
  -4  -8   1   23.27    0.91
  -4  -8   1   26.86    1.17
   4   8  -1   23.97    1.20
  -3  -8   1   22.29    0.94
  -3  -8   1   24.25    1.08
   3  -8  -1   23.45    1.18
   3   8  -1   22.45    1.17
  -2  -8   1    9.90    0.69
  -2   8   1   10.55    0.83
   2   8  -1   10.51    0.84
  -1  -8   1    0.86    0.29
  -1   8   1    0.76    0.40
   1   8  -1    0.66    0.41
   0   8  -1    0.51    0.41
   0   8   1    0.71    0.40
  -1  -8  -1   46.18    1.60
   1   8   1   43.23    1.63
  -1   8  -1   44.83    1.77
  -2  -8  -1   16.75    0.93
  -2  -8  -1   17.39    0.86
   2   8   1   17.81    0.96
  -2   8  -1   18.34    1.14
  -3  -8  -1    5.72    0.65
   3  -8   1    5.72    0.74
  -3  -8  -1    5.43    0.53
   3   8   1    6.03    0.67
  -4  -8  -1   -0.08    0.30
   4  -8   1    0.11    0.42
  -4  -8  -1    0.42    0.31
   4   8   1    0.07    0.33
   5  -8   1    4.96    0.76
  -5  -8  -1    3.12    0.54
   5   8   1    4.18    0.60
  -6  -8  -1    7.93    0.87
   6  -8   1    9.83    1.01
   6   8   1    7.94    0.76
  -7  -8  -1    5.39    0.78
   7  -8   1    3.68    0.77
   7   8   1    4.38    0.90
   8  -8   1   -0.51    0.53
  -8  -8  -1    1.32    0.61
  -9  -8  -1    0.01    0.51
   9  -8   1    0.52    0.63
 -10  -8  -1    5.76    1.00
  10  -8   1    7.35    1.12
 -11  -8  -1    6.41    1.12
  11  -8   1    6.33    1.22
 -12  -8  -1    2.77    1.02
  12  -8   1    4.26    1.12
 -13  -8  -1   -0.15    0.92
  13  -8   1   -1.44    0.78
 -14  -8  -1   -0.21    0.91
  14  -8   1   -1.48    1.66
 -14  -9   1   -0.88    0.94
 -13  -9   1   -0.90    0.88
  13  -9  -1   -1.24    0.96
 -12  -9   1   -2.31    0.70
  12  -9  -1   -1.60    0.84
 -11  -9   1    0.67    0.75
  11  -9  -1    0.13    0.85
 -10  -9   1    0.04    0.72
  10  -9  -1    0.90    0.75
   9  -9  -1    1.07    0.70
  -9  -9   1   -0.12    0.61
   8  -9  -1   -0.20    0.63
  -8  -9   1    0.36    0.61
   8   9  -1    0.37    0.44
   7  -9  -1    4.82    0.90
  -7  -9   1    2.97    0.64
   7   9  -1    3.39    0.68
  -6  -9   1    7.22    0.85
   6  -9  -1    7.60    0.97
   6   9  -1    6.82    0.82
  -5  -9   1    0.06    0.39
   5  -9  -1   -0.22    0.48
   5   9  -1    0.25    0.45
  -4  -9   1    3.45    0.57
   4  -9  -1    4.90    0.77
   4   9  -1    3.07    0.61
  -3  -9   1   10.70    0.70
  -3  -9   1   10.09    0.79
   3  -9  -1   10.55    0.86
   3   9  -1   10.71    0.91
  -2  -9   1    3.22    0.47
  -2   9   1    4.63    0.76
   2   9  -1    3.35    0.60
  -1  -9   1    3.32    0.45
   1   9  -1    3.04    0.59
  -1   9   1    3.12    0.63
   0   9  -1    4.81    0.77
   0   9   1    4.27    0.69
  -1  -9  -1    2.22    0.50
  -1   9  -1    1.70    0.56
   1   9   1    1.80    0.53
  -2  -9  -1   -0.05    0.32
  -2  -9  -1    0.02    0.32
   2   9   1    0.43    0.39
  -2   9  -1   -0.18    0.44
  -3  -9  -1   -0.11    0.30
   3  -9   1   -0.12    0.45
  -3  -9  -1    0.60    0.33
   3   9   1   -0.23    0.35
   4  -9   1    1.81    0.64
  -4  -9  -1    1.43    0.44
   4   9   1    0.91    0.44
   5  -9   1    3.28    0.75
  -5  -9  -1    2.29    0.56
   5   9   1    2.94    0.58
   6  -9   1    1.10    0.59
  -6  -9  -1    1.56    0.52
   7  -9   1   -0.03    0.58
  -7  -9  -1   -0.37    0.44
   8  -9   1    2.25    0.73
  -8  -9  -1    1.99    0.70
   9  -9   1    2.60    0.86
  -9  -9  -1    1.85    0.66
 -10  -9  -1    2.03    0.75
  10  -9   1    1.79    0.84
 -11  -9  -1   -0.52    0.73
  11  -9   1   -1.22    0.77
 -12  -9  -1   -0.10    0.77
  12  -9   1    0.40    0.87
 -13  -9  -1   -1.08    0.75
  13  -9   1    0.27    0.93
 -14  -9  -1   -0.92    0.97
 -14 -10   1   -0.87    1.04
  13 -10  -1    5.10    1.35
 -13 -10   1    2.55    1.02
  12 -10  -1    3.02    1.08
 -12 -10   1    2.09    1.03
  11 -10  -1    0.03    0.79
 -11 -10   1   -0.19    0.69
  10 -10  -1   -0.29    0.71
 -10 -10   1    0.32    0.78
   9 -10  -1   13.55    1.48
  -9 -10   1   10.81    1.24
  -8 -10   1    7.35    0.99
   8 -10  -1    8.55    1.11
   7 -10  -1    1.65    0.75
  -7 -10   1    2.29    0.67
   7  10  -1    3.12    0.66
   6 -10  -1   -0.21    0.55
  -6 -10   1    0.20    0.43
   6  10  -1    0.07    0.43
   5 -10  -1    2.36    0.71
  -5 -10   1    2.17    0.58
   5  10  -1    2.51    0.62
   4 -10  -1   16.83    1.15
  -4 -10   1   20.09    1.16
   4  10  -1   19.03    1.20
   3 -10  -1    4.57    0.79
  -3 -10   1    4.64    0.64
   3  10  -1    5.38    0.80
  -2 -10   1   16.74    0.98
   2 -10  -1   14.91    1.08
   2  10  -1   16.66    1.15
  -1 -10   1    0.01    0.31
  -1  10   1    0.71    0.53
   1  10  -1   -0.42    0.44
   0 -10   1   14.97    0.86
   0  10   1   13.80    1.04
   0  10  -1   12.81    1.04
  -1 -10  -1   30.93    1.35
  -1 -10  -1   29.09    1.36
  -1  10  -1   30.99    1.54
   1  10   1   28.49    1.42
  -2 -10  -1   50.95    1.86
  -2 -10  -1   49.49    1.79
  -2  10  -1   50.12    2.12
   2  10   1   48.94    1.93
  -3 -10  -1    8.60    0.80
  -3 -10  -1    8.67    0.84
   3 -10   1   11.12    1.12
   3  10   1    8.74    0.83
   4 -10   1   -0.05    0.52
  -4 -10  -1   -0.24    0.41
   4  10   1    0.12    0.44
  -5 -10  -1   16.54    1.16
   5 -10   1   14.81    1.15
   6 -10   1   16.75    1.28
  -6 -10  -1   15.86    1.23
   7 -10   1    4.67    0.87
  -7 -10  -1    4.64    0.83
   8 -10   1   -0.08    0.68
  -8 -10  -1    0.73    0.57
   9 -10   1    0.87    0.80
  -9 -10  -1    1.73    0.70
 -10 -10  -1    5.25    1.04
  10 -10   1    5.35    1.08
  11 -10   1    1.27    0.90
 -11 -10  -1    1.49    0.91
 -12 -10  -1    1.70    0.91
  12 -10   1    2.57    1.15
 -13 -10  -1   -0.74    0.80
 -13 -11   1   -0.82    1.01
  12 -11  -1    0.84    0.99
 -12 -11   1   -0.53    0.86
 -11 -11   1    0.89    0.90
  11 -11  -1   -0.15    0.83
  10 -11  -1   -0.31    0.76
 -10 -11   1   -0.14    0.74
   9 -11  -1    0.84    0.84
  -9 -11   1    0.87    0.67
   8 -11  -1    1.71    0.84
  -8 -11   1    1.15    0.70
  -7 -11   1    0.08    0.58
   7 -11  -1    0.02    0.59
   6 -11  -1   -0.04    0.52
  -6 -11   1   -0.52    0.43
   6  11  -1    0.07    0.46
  -5 -11   1    0.56    0.49
   5 -11  -1    0.39    0.58
   5  11  -1    0.49    0.47
   4 -11  -1   -0.17    0.51
  -4 -11   1   -0.03    0.38
   4  11  -1   -0.45    0.42
   3 -11  -1    0.89    0.50
  -3 -11   1   -0.18    0.36
   3  11  -1    0.36    0.50
  -2 -11   1    1.34    0.47
  -2 -11   1    0.62    0.37
   2 -11  -1    1.72    0.62
   2  11  -1    0.46    0.54
  -1 -11   1    0.19    0.33
   1  11  -1    0.75    0.57
  -1  11   1    0.77    0.58
   0 -11   1    3.31    0.49
   0  11   1    3.75    0.75
   0  11  -1    2.94    0.73
  -1 -11  -1    1.06    0.48
  -1 -11  -1    0.77    0.40
   1  11   1    0.64    0.52
  -1  11  -1    1.46    0.61
  -2 -11  -1   -0.06    0.37
  -2 -11  -1    0.57    0.40
  -2  11  -1   -0.05    0.52
   2  11   1    0.25    0.48
   3 -11   1    1.12    0.62
  -3 -11  -1    0.80    0.44
   3  11   1    0.61    0.47
  -4 -11  -1    0.38    0.47
   4 -11   1    0.79    0.55
   5 -11   1    0.17    0.57
  -5 -11  -1    0.02    0.45
   6 -11   1    1.88    0.77
  -6 -11  -1    1.31    0.56
   7 -11   1    1.02    0.67
  -7 -11  -1    0.57    0.65
   8 -11   1   -0.89    0.59
  -8 -11  -1    0.23    0.63
  -9 -11  -1    1.04    0.72
   9 -11   1    0.24    0.83
  10 -11   1    0.04    0.78
 -10 -11  -1    0.36    0.69
 -11 -11  -1    0.01    0.81
  11 -11   1   -0.09    0.78
 -12 -11  -1   -1.19    0.84
 -12 -12   1    1.47    1.14
 -11 -12   1   -0.69    0.75
  11 -12  -1   -1.08    0.78
 -10 -12   1    0.24    0.84
  10 -12  -1   -0.77    0.77
   9 -12  -1    5.91    1.13
  -9 -12   1    4.41    0.94
  -8 -12   1    6.91    1.01
   8 -12  -1    6.25    1.09
   7 -12  -1    4.73    1.03
  -7 -12   1    5.10    0.94
   6 -12  -1    0.24    0.59
  -6 -12   1    0.16    0.59
  -5 -12   1    4.36    0.75
   5 -12  -1    5.48    0.95
   5  12  -1    5.33    0.87
   4 -12  -1   19.25    1.30
  -4 -12   1   21.50    1.30
   4  12  -1   20.91    1.38
   3 -12  -1   22.63    1.35
  -3 -12   1   28.48    1.40
   3  12  -1   22.71    1.43
   2 -12  -1   11.61    1.04
  -2 -12   1   10.31    0.91
   2  12  -1   12.50    1.27
  -1 -12   1    9.74    0.86
  -1  12   1   10.82    1.17
   1  12  -1    8.90    1.08
   0 -12  -1    9.09    0.88
   0 -12   1    9.39    0.77
   0 -12  -1    7.45    0.78
   0  12   1   10.23    1.09
   0  12  -1   10.77    1.18
  -1 -12  -1   10.53    0.89
  -1 -12  -1    9.99    0.88
   1  12   1   11.16    1.13
  -1  12  -1   10.91    1.19
  -2 -12  -1   25.82    1.40
  -2  12  -1   29.31    1.72
   2  12   1   26.71    1.49
  -3 -12  -1   14.42    1.10
   3 -12   1   12.56    1.27
   4 -12   1    1.46    0.62
  -4 -12  -1    1.04    0.56
   5 -12   1    5.87    0.94
  -5 -12  -1    5.12    0.78
   6 -12   1   11.50    1.32
  -6 -12  -1    9.16    1.11
  -7 -12  -1    8.36    1.08
   7 -12   1    8.88    1.19
  -8 -12  -1    0.30    0.65
   8 -12   1   -0.12    0.68
   9 -12   1    0.45    0.74
  -9 -12  -1   -0.05    0.69
 -10 -12  -1    5.55    1.10
  10 -12   1    5.84    1.29
 -11 -12  -1    2.88    1.07
 -11 -13   1   -0.44    0.82
 -10 -13   1   -0.08    0.86
  10 -13  -1   -0.52    0.84
   9 -13  -1   -1.26    0.73
  -9 -13   1   -0.01    0.69
  -8 -13   1    0.77    0.75
   8 -13  -1   -0.51    0.72
  -7 -13   1   -0.02    0.64
   7 -13  -1   -0.03    0.75
   6 -13  -1   -0.23    0.67
  -6 -13   1   -0.50    0.51
  -5 -13   1    0.57    0.56
   5 -13  -1   -0.08    0.56
  -4 -13   1    0.07    0.46
   4 -13  -1    0.50    0.62
   4  13  -1    0.41    0.64
  -3 -13   1    0.18    0.42
   3 -13  -1   -0.03    0.47
   3  13  -1    0.01    0.52
   2 -13  -1    3.56    0.77
  -2 -13   1    1.28    0.52
   2  13  -1    1.88    0.68
   1  13  -1    0.29    0.55
  -1  13   1    0.63    0.64
   0 -13  -1    5.15    0.69
   0 -13  -1    8.29    0.97
   0  13   1    5.86    0.98
   0  13  -1    6.96    1.01
  -1 -13  -1    0.33    0.38
   1  13   1    0.01    0.53
  -1  13  -1   -0.24    0.55
  -2 -13  -1    1.03    0.48
   2 -13   1    1.11    0.59
  -2  13  -1    0.32    0.62
   3 -13   1    0.26    0.53
  -3 -13  -1   -0.24    0.43
  -4 -13  -1    1.02    0.57
   4 -13   1    2.27    0.73
  -5 -13  -1    0.16    0.49
   5 -13   1    0.85    0.74
   6 -13   1    0.72    0.70
  -6 -13  -1    1.23    0.68
  -7 -13  -1   -0.36    0.64
   7 -13   1    1.63    0.88
  -8 -13  -1    0.64    0.76
   8 -13   1    0.38    0.75
   9 -13   1    1.26    0.86
  -9 -13  -1    0.03    0.64
 -10 -13  -1   -0.98    0.71
 -10 -14   1   -0.55    0.84
  -9 -14   1    1.44    0.92
   9 -14  -1    1.07    0.96
  -8 -14   1    1.25    0.78
   8 -14  -1    2.24    0.93
  -7 -14   1    0.81    0.74
   7 -14  -1    0.74    0.77
  -6 -14   1   -0.53    0.55
   6 -14  -1    0.43    0.66
  -5 -14   1    2.06    0.72
   5 -14  -1    2.45    0.79
   4 -14  -1    8.97    1.20
  -4 -14   1    6.82    0.96
   3 -14  -1    4.18    0.89
  -3 -14   1    4.62    0.78
   2 -14  -1    2.97    0.72
   2  14  -1    2.50    0.83
   1 -14  -1    1.79    0.64
   1  14  -1    0.73    0.66
   0 -14  -1    9.36    1.30
   0  14  -1    8.34    1.22
   0  14   1    6.91    1.17
  -1 -14  -1   37.38    1.75
  -1  14  -1   36.09    2.06
   2 -14   1   18.35    1.31
  -2 -14  -1   16.76    1.23
  -3 -14  -1    3.75    0.75
   3 -14   1    4.89    0.94
  -4 -14  -1    0.48    0.56
   4 -14   1    1.51    0.71
   5 -14   1    6.94    1.15
  -5 -14  -1    5.16    0.95
  -6 -14  -1    6.77    1.08
   6 -14   1    8.23    1.25
  -7 -14  -1    2.52    0.88
   7 -14   1    5.43    1.09
  -8 -14  -1    0.32    0.74
   8 -14   1   -0.45    0.73
  -9 -14  -1   -1.45    0.70
  -8 -15   1   -0.50    0.74
  -7 -15   1   -0.11    0.75
   7 -15  -1    0.73    0.89
  -6 -15   1    0.33    0.71
   6 -15  -1    0.52    0.74
   5 -15  -1   -0.17    0.63
  -5 -15   1    0.02    0.64
   4 -15  -1   -0.39    0.56
   3 -15  -1    0.86    0.63
   2 -15  -1    3.10    0.74
   1 -15  -1    4.13    0.84
   1  15  -1    2.22    0.85
   0  15  -1    1.32    0.86
  -1  15  -1   -0.57    0.65
  -2 -15  -1    0.83    0.54
   2 -15   1    2.21    0.69
  -3 -15  -1    0.55    0.55
   3 -15   1    0.62    0.64
   4 -15   1    1.36    0.78
  -4 -15  -1   -0.24    0.56
   5 -15   1    1.83    0.88
  -5 -15  -1    0.12    0.62
  -6 -15  -1   -0.31    0.67
   6 -15   1   -0.39    0.75
   7 -15   1   -0.38    1.38
  -7 -15  -1    1.11    0.83
  -8 -15  -1    0.86    0.81
   6 -16  -1    1.03    0.81
  -6 -16   1    0.60    0.99
   5 -16  -1   -0.17    0.75
   4 -16  -1    1.21    0.83
   3 -16  -1    5.33    1.05
   0  16  -1    0.60    0.90
   1 -16   1   12.58    1.20
   2 -16   1    7.30    1.11
   3 -16   1    2.43    0.82
  -4 -16  -1    0.26    0.58
   4 -16   1    0.34    0.65
   5 -16   1    0.26    0.72
  -5 -16  -1   -0.69    0.64
  -6 -16  -1   -0.34    0.71
   2 -17   1    2.72    0.84
  17   0  -2    2.97    1.16
  16   0  -2    3.72    1.12
  15   0  -2    4.42    1.03
  14   0  -2    7.35    1.14
  13   0  -2   11.70    1.31
  12   0  -2    0.15    0.73
  11   0  -2    9.91    1.10
 -11   0   2    7.20    1.11
  10   0  -2    3.80    0.78
 -10   0   2    3.17    0.75
  -9   0   2   16.59    1.28
   9   0  -2   15.85    1.16
  -8   0   2   -0.39    0.46
   8   0  -2    0.02    0.45
   7   0  -2   54.28    1.82
  -7   0   2   52.88    1.87
   6   0  -2   82.98    2.43
  -6   0   2   86.85    2.48
   5   0  -2    6.98    0.58
  -5   0   2    7.92    0.62
   4   0  -2    0.74    0.35
   3   0  -2   17.48    0.69
  -3   0   2   17.51    0.70
   2   0  -2  533.17   12.15
   1   0   2   22.11    0.63
   2   0   2  995.49   22.69
  -2   0  -2  984.23   22.87
  -2   0  -2 1000.00   22.50
  -3   0  -2  485.15   11.10
  -3   0  -2  480.56   10.95
   3   0   2  481.13   10.95
  -4   0  -2  264.53    6.35
  -4   0  -2  263.90    6.20
   4   0   2  261.78    6.20
  -5   0  -2   35.36    1.34
  -5   0  -2   35.13    1.22
   5   0   2   36.04    1.22
   6   0   2   48.89    1.60
  -6   0  -2   49.92    1.62
  -6   0  -2   45.31    1.68
  -7   0  -2   19.73    1.12
  -7   0  -2   17.46    1.00
   7   0   2   19.59    1.01
   8   0   2   32.92    1.39
  -8   0  -2   33.51    1.57
  -8   0  -2   32.33    1.46
  -9   0  -2    8.80    1.01
   9   0   2    9.68    0.96
  -9   0  -2    7.18    0.83
  10   0   2    7.64    0.98
 -10   0  -2    7.45    1.02
 -10   0  -2    7.10    0.93
 -11   0  -2   12.34    1.17
  11   0   2   11.93    1.19
 -11   0  -2   11.09    1.18
  12   0   2    3.54    0.88
 -12   0  -2    1.86    0.86
  13   0   2    1.26    0.85
 -13   0  -2    0.58    0.87
 -14   0  -2   -0.24    0.89
  14   0   2    0.13    0.80
  17  -1  -2   -0.70    0.82
  17   1  -2    0.16    0.95
  16  -1  -2   -0.85    0.89
  16   1  -2   -0.32    0.89
  15  -1  -2    2.13    0.94
  15   1  -2    4.21    1.09
  14  -1  -2    0.15    0.87
 -14  -1   2   -0.52    0.96
  14   1  -2   -1.08    0.76
 -13  -1   2    3.45    0.95
  13  -1  -2    4.28    0.97
  13   1  -2    3.67    0.94
  12  -1  -2    3.95    0.93
 -12  -1   2    1.00    0.80
  12   1  -2    3.69    0.83
  11  -1  -2   -0.70    0.60
 -11  -1   2   -0.55    0.73
  11   1  -2    0.06    0.61
 -10  -1   2   -0.71    0.66
  10  -1  -2   -0.20    0.60
  10   1  -2   -0.30    0.62
   9  -1  -2    1.36    0.69
  -9  -1   2    1.61    0.67
   9   1  -2    0.98    0.58
  -8  -1   2    6.83    0.79
   8  -1  -2    6.20    0.75
   8   1  -2    7.52    0.83
   7  -1  -2   24.59    1.14
  -7  -1   2   26.72    1.24
   7   1  -2   23.22    1.15
  -6  -1   2    5.33    0.54
   6  -1  -2    4.89    0.57
   6   1  -2    5.15    0.58
   5  -1  -2    2.50    0.42
  -5  -1   2    2.32    0.41
   5   1  -2    2.50    0.42
  -4  -1   2    6.18    0.50
   4   1  -2    6.21    0.56
   3  -1  -2  137.04    3.31
  -3  -1   2  134.25    3.30
   3   1  -2  135.62    3.30
   2  -1  -2   18.40    0.62
  -2  -1   2   19.82    0.64
   2   1  -2   17.60    0.63
   1  -1  -2    0.48    0.15
   1   1  -2   -0.31    0.12
   0   1  -2    2.34    0.22
  -1  -1  -2   20.28    0.69
  -1   1  -2   20.67    0.67
   1   1   2   20.86    0.53
  -1   1  -2   20.72    0.73
   2  -1   2   29.90    0.92
  -2  -1  -2   31.17    0.91
  -2  -1  -2   29.90    0.96
   2   1   2   29.74    0.83
  -2   1  -2   30.11    1.04
  -3  -1  -2  235.45    5.77
   3  -1   2  245.71    5.75
  -3  -1  -2  245.88    5.74
  -3   1  -2  244.40    5.90
  -3   1  -2  247.71    5.66
   3   1   2  248.87    5.67
  -4  -1  -2   64.47    1.88
   4  -1   2   64.83    1.83
  -4  -1  -2   64.14    1.81
  -4   1  -2   64.50    1.76
   4   1   2   64.61    1.77
  -4   1  -2   65.56    1.98
  -5  -1  -2    5.85    0.59
   5  -1   2    6.32    0.53
  -5  -1  -2    5.67    0.49
   5   1   2    5.32    0.49
  -5   1  -2    4.96    0.46
  -5   1  -2    5.29    0.63
  -6  -1  -2    0.60    0.34
   6  -1   2    1.18    0.41
  -6  -1  -2    0.84    0.41
   6   1   2    1.06    0.38
  -6   1  -2    1.53    0.50
  -6   1  -2    0.74    0.35
   7  -1   2    1.93    0.53
  -7  -1  -2    1.13    0.47
  -7  -1  -2    1.56    0.46
  -7   1  -2    1.59    0.52
  -7   1  -2    1.33    0.45
   7   1   2    1.52    0.48
  -8  -1  -2    0.74    0.46
  -8  -1  -2    0.67    0.53
   8  -1   2    0.87    0.55
  -8   1  -2    0.37    0.54
   8   1   2    0.83    0.49
  -8   1  -2    0.26    0.48
  -9  -1  -2    1.36    0.63
   9  -1   2    1.55    0.66
  -9  -1  -2    1.46    0.54
  -9   1  -2    0.94    0.65
  -9   1  -2    1.04    0.60
   9   1   2    1.05    0.61
  10  -1   2    9.60    1.07
 -10  -1  -2    9.72    1.07
 -10  -1  -2    6.06    0.86
 -10   1  -2    8.18    1.06
 -10   1  -2    7.85    0.97
  10   1   2    8.17    0.99
 -11  -1  -2   -1.02    0.64
  11  -1   2   -0.67    0.54
 -11  -1  -2    0.46    0.69
  11   1   2    0.49    0.61
 -11   1  -2    0.10    0.67
 -12  -1  -2    0.27    0.67
  12  -1   2   -0.75    0.68
 -12   1  -2   -0.52    0.70
  12   1   2    0.57    0.69
 -13  -1  -2    0.71    0.87
  13  -1   2    0.44    0.79
  13   1   2    0.42    0.71
 -14  -1  -2   -0.42    0.89
  14  -1   2   -0.59    0.77
  15  -1   2    0.04    1.06
 -15  -1  -2   -1.06    0.87
 -16  -1  -2   -1.74    1.22
  17  -2  -2    1.80    1.02
  16  -2  -2    5.28    1.19
  16   2  -2    4.36    1.05
 -15  -2   2    1.85    1.11
  15  -2  -2    3.73    1.16
  15   2  -2    3.73    0.96
 -14  -2   2    0.33    0.84
  14  -2  -2    1.21    0.92
  14   2  -2    0.03    0.78
 -13  -2   2    8.71    1.26
  13  -2  -2    8.16    1.17
  13   2  -2    9.52    1.21
  12  -2  -2   -0.07    0.66
 -12  -2   2    0.30    0.72
  12   2  -2    2.12    0.72
 -11  -2   2    6.79    1.04
  11  -2  -2    5.53    0.95
  11   2  -2    6.32    0.98
 -10  -2   2    8.43    1.03
  10  -2  -2    9.66    1.10
  10   2  -2    8.62    0.99
   9  -2  -2    0.68    0.62
  -9  -2   2    0.39    0.54
   9   2  -2    0.20    0.53
   8  -2  -2    4.28    0.72
  -8  -2   2    3.72    0.66
   8   2  -2    4.99    0.73
  -7  -2   2   39.27    1.52
   7  -2  -2   39.51    1.51
   7   2  -2   41.39    1.52
   6  -2  -2   55.50    1.79
  -6  -2   2   53.62    1.78
   6   2  -2   56.31    1.79
   5  -2  -2    0.64    0.33
  -5  -2   2    0.25    0.32
   5   2  -2    0.10    0.27
   4  -2  -2   56.46    1.64
  -4  -2   2   55.26    1.65
   4   2  -2   55.07    1.63
   3  -2  -2   91.47    2.32
  -3  -2   2   89.80    2.32
   3   2  -2   89.32    2.34
   2  -2  -2  838.13   19.32
  -2  -2   2  813.01   18.70
   2   2  -2  842.32   19.04
   1  -2  -2   81.48    2.07
   1  -2  -2   79.94    1.96
   1   2  -2   82.75    2.08
   0  -2  -2   47.38    1.31
   0   2   2   49.03    1.19
   0   2  -2   49.76    1.37
  -1  -2  -2    3.13    0.29
   1   2   2    2.80    0.18
  -1   2  -2    2.44    0.33
  -1   2  -2    3.17    0.34
  -2  -2  -2    5.17    0.40
   2  -2   2    4.11    0.40
  -2  -2  -2    4.30    0.36
   2   2   2    4.36    0.28
  -2   2  -2    4.07    0.46
  -3  -2  -2   22.74    0.83
   3  -2   2   23.61    0.89
  -3  -2  -2   22.77    0.84
  -3   2  -2   22.10    0.99
   3   2   2   22.92    0.75
  -4  -2  -2   46.19    1.45
   4  -2   2   46.86    1.48
  -4  -2  -2   49.29    1.48
  -4   2  -2   47.27    1.38
   4   2   2   46.70    1.37
  -4   2  -2   47.96    1.66
  -5  -2  -2   33.38    1.20
  -5  -2  -2   34.74    1.23
   5  -2   2   32.26    1.20
   5   2   2   31.93    1.13
  -5   2  -2   32.68    1.15
  -5   2  -2   32.04    1.36
  -6  -2  -2   16.85    0.92
   6  -2   2   16.88    0.92
  -6  -2  -2   16.46    0.87
   6   2   2   15.01    0.84
  -6   2  -2   16.76    1.01
  -6   2  -2   16.26    0.88
  -7  -2  -2   19.50    1.06
  -7  -2  -2   18.88    1.04
   7  -2   2   19.43    1.05
   7   2   2   16.49    0.94
  -7   2  -2   18.04    1.00
  -7   2  -2   16.76    1.17
   8  -2   2   10.44    0.90
  -8  -2  -2   10.36    0.94
  -8  -2  -2    9.22    0.87
  -8   2  -2   10.98    1.12
   8   2   2   10.98    0.89
  -8   2  -2   11.16    1.02
   9  -2   2   11.23    1.09
  -9  -2  -2    7.15    0.87
  -9  -2  -2    8.74    0.91
  -9   2  -2    9.55    1.10
   9   2   2    8.52    0.89
  -9   2  -2    8.04    0.89
 -10  -2  -2    6.70    0.95
 -10  -2  -2    6.33    0.90
  10  -2   2    6.07    0.89
  10   2   2    7.10    0.90
  11  -2   2    8.71    1.07
 -11  -2  -2    8.50    1.04
  11   2   2    9.76    1.04
  12  -2   2   17.33    1.44
 -12  -2  -2   17.26    1.54
  12   2   2   18.09    1.39
 -13  -2  -2    5.42    1.09
  13  -2   2    5.24    1.10
 -14  -2  -2   -0.57    0.89
  14  -2   2   -0.38    0.76
 -15  -2  -2   -0.96    0.96
  15  -2   2   -2.23    0.83
 -16  -2  -2   -1.19    1.00
 -17  -3   2   -1.03    1.21
  16  -3  -2    0.06    0.95
 -16  -3   2    0.36    1.11
  16   3  -2    1.87    1.04
  15  -3  -2    0.55    0.90
 -15  -3   2    0.27    0.94
  15   3  -2    1.82    0.86
 -14  -3   2   -0.25    0.83
  14  -3  -2    0.44    0.85
  14   3  -2    1.24    0.74
  13  -3  -2   -0.18    0.72
 -13  -3   2   -0.52    0.82
  13   3  -2    0.38    0.63
  12  -3  -2    0.43    0.70
 -12  -3   2   -0.48    0.79
  12   3  -2   -0.16    0.63
 -11  -3   2    0.41    0.75
  11  -3  -2    1.20    0.73
  11   3  -2    1.62    0.72
 -10  -3   2    3.21    0.79
  10  -3  -2    4.57    0.91
  10   3  -2    4.14    0.81
   9  -3  -2    4.73    0.78
  -9  -3   2    3.91    0.71
   9   3  -2    4.11    0.75
  -8  -3   2    1.46    0.55
   8  -3  -2    1.64    0.56
   8   3  -2    1.61    0.51
   7  -3  -2    8.18    0.75
  -7  -3   2    6.96    0.72
   7   3  -2    8.19    0.80
   6  -3  -2   10.26    0.72
  -6  -3   2    8.16    0.69
   6   3  -2    8.41    0.70
  -5  -3   2   12.32    0.71
   5  -3  -2   11.74    0.69
   5   3  -2   11.27    0.71
  -4  -3   2    2.88    0.37
   4  -3  -2    3.42    0.42
   4   3  -2    3.15    0.41
  -3  -3   2   16.65    0.70
   3  -3  -2   17.47    0.71
   3   3  -2   16.50    0.73
   2  -3  -2    3.67    0.36
  -2  -3   2    2.54    0.27
   2   3  -2    2.79    0.36
   1  -3  -2  376.35    8.53
  -1  -3   2  371.71    8.49
   1   3  -2  375.99    8.68
   0  -3  -2   34.71    1.08
   0   3  -2   34.76    1.13
   0   3  -2   37.23    1.18
   0   3   2   36.78    1.01
  -1  -3  -2    2.66    0.28
  -1   3  -2    2.47    0.39
   1   3   2    2.55    0.24
  -1   3  -2    2.14    0.37
  -2  -3  -2   -0.15    0.19
  -2  -3  -2    0.18    0.21
  -2   3  -2   -0.21    0.28
  -2   3  -2   -0.28    0.28
   2   3   2   -0.07    0.14
   3  -3   2    0.23    0.28
  -3  -3  -2    0.30    0.25
  -3  -3  -2    0.14    0.19
  -3   3  -2    0.31    0.30
   3   3   2    0.21    0.18
  -4  -3  -2   -0.11    0.21
   4  -3   2   -0.20    0.24
  -4  -3  -2    0.20    0.28
  -4   3  -2    0.26    0.33
   4   3   2   -0.16    0.19
  -5  -3  -2    1.31    0.34
  -5  -3  -2    1.31    0.38
   5  -3   2    1.52    0.42
  -5   3  -2    0.41    0.40
   5   3   2    1.23    0.30
  -6  -3  -2    7.48    0.70
  -6  -3  -2    6.89    0.66
   6  -3   2    6.71    0.66
   6   3   2    6.96    0.61
  -6   3  -2    8.12    0.87
   7  -3   2    1.89    0.51
  -7  -3  -2    1.25    0.47
  -7  -3  -2    1.31    0.47
  -7   3  -2    0.79    0.53
   7   3   2    1.99    0.48
  -8  -3  -2    0.35    0.48
   8  -3   2    0.91    0.57
  -8  -3  -2    0.84    0.53
   8   3   2    0.92    0.50
  -8   3  -2    0.37    0.58
   9  -3   2    1.97    0.69
  -9  -3  -2    1.23    0.63
  -9  -3  -2    0.51    0.54
   9   3   2    0.78    0.57
  10  -3   2   11.05    1.21
 -10  -3  -2    9.71    1.02
  10   3   2    7.67    0.91
 -11  -3  -2    0.64    0.64
  11  -3   2    1.45    0.77
  11   3   2    2.37    0.69
  12  -3   2   -0.63    0.65
 -12  -3  -2    0.19    0.66
 -13  -3  -2    1.26    0.89
  13  -3   2    1.98    0.92
  14  -3   2    2.90    1.07
 -14  -3  -2    2.33    1.08
  15  -3   2    0.20    0.97
 -15  -3  -2   -0.43    0.87
  16  -3   2   -2.54    0.86
 -16  -3  -2    0.44    1.15
 -17  -4   2    1.52    1.31
 -16  -4   2   -0.69    1.08
  16  -4  -2   -0.85    1.02
 -15  -4   2   -0.87    1.00
  15  -4  -2   -0.33    0.95
  15   4  -2    1.44    0.85
  14  -4  -2   -1.07    0.76
 -14  -4   2   -1.34    0.87
  14   4  -2    0.56    0.76
  13  -4  -2    4.25    1.02
 -13  -4   2    5.29    1.16
  13   4  -2    6.87    1.03
  12  -4  -2   18.61    1.53
 -12  -4   2   19.40    1.67
  12   4  -2   17.61    1.32
 -11  -4   2   16.05    1.48
  11  -4  -2   16.78    1.32
  11   4  -2   15.23    1.29
 -10  -4   2    1.77    0.75
  10  -4  -2    3.31    0.87
  10   4  -2    2.83    0.71
  -9  -4   2    0.07    0.52
   9  -4  -2    0.97    0.61
   9   4  -2   -0.04    0.54
   8  -4  -2   17.14    1.12
  -8  -4   2   18.28    1.22
   8   4  -2   19.10    1.09
   7  -4  -2   32.61    1.41
  -7  -4   2   33.92    1.43
   7   4  -2   30.96    1.38
  -6  -4   2    5.24    0.56
   6  -4  -2    5.32    0.63
   6   4  -2    6.20    0.66
  -5  -4   2    0.23    0.30
   5  -4  -2    1.16    0.40
   5   4  -2    0.00    0.29
   4  -4  -2    0.02    0.25
  -4  -4   2    0.06    0.24
   4   4  -2    0.38    0.28
  -3  -4   2   25.87    0.91
   3  -4  -2   23.42    0.93
   3   4  -2   23.69    0.95
  -2  -4   2   45.58    1.33
   2  -4  -2   46.08    1.39
   2   4  -2   48.09    1.49
  -1  -4   2   70.96    1.78
   1  -4  -2   66.27    1.83
   1   4  -2   69.47    1.98
   0  -4   2   53.44    1.41
   0  -4  -2   55.38    1.61
   0   4  -2   54.69    1.68
   0   4   2   56.82    1.53
  -1  -4  -2    3.63    0.36
  -1   4  -2    2.69    0.41
   1   4   2    3.06    0.30
  -2  -4  -2    2.35    0.33
  -2  -4  -2    2.68    0.32
   2   4   2    2.62    0.29
  -2   4  -2    2.33    0.44
  -3  -4  -2   27.06    0.93
  -3  -4  -2   28.02    1.05
   3  -4   2   27.11    1.07
  -3   4  -2   26.05    1.17
   3   4   2   26.46    0.89
  -4  -4  -2   54.40    1.57
  -4  -4  -2   52.47    1.68
   4  -4   2   54.30    1.74
   4   4   2   50.94    1.51
  -4   4  -2   50.64    1.86
  -5  -4  -2    6.08    0.58
  -5  -4  -2    6.03    0.59
   5  -4   2    6.28    0.65
   5   4   2    6.22    0.51
  -5   4  -2    6.66    0.78
   6  -4   2   33.45    1.43
  -6  -4  -2   35.10    1.40
  -6  -4  -2   34.56    1.29
   6   4   2   35.18    1.26
  -7  -4  -2   21.83    1.09
   7  -4   2   21.56    1.17
  -7  -4  -2   20.91    1.13
   7   4   2   21.56    1.04
   8  -4   2   33.18    1.59
  -8  -4  -2   34.48    1.60
  -8  -4  -2   32.89    1.44
   8   4   2   32.37    1.41
  -9  -4  -2    1.03    0.61
   9  -4   2    0.14    0.57
   9   4   2   -0.62    0.43
  10  -4   2    0.72    0.70
 -10  -4  -2    1.16    0.61
  10   4   2    0.88    0.56
  11  -4   2   12.62    1.31
 -11  -4  -2   10.64    1.17
 -12  -4  -2    8.37    1.18
  12  -4   2    7.88    1.24
 -13  -4  -2    6.64    1.15
  13  -4   2    7.54    1.27
 -14  -4  -2   -0.47    0.78
  14  -4   2   -0.30    0.92
 -15  -4  -2   -1.29    0.98
  15  -4   2   -0.78    0.97
  16  -5  -2   -0.80    0.91
 -16  -5   2   -2.33    1.05
 -15  -5   2   -2.16    0.93
  15  -5  -2   -0.50    0.85
  14  -5  -2    1.38    1.05
 -14  -5   2    1.86    1.08
  14   5  -2    4.25    0.97
 -13  -5   2    4.42    1.13
  13  -5  -2    5.34    1.11
  13   5  -2    7.54    1.15
  12  -5  -2    0.76    0.81
 -12  -5   2   -0.16    0.76
  12   5  -2    0.28    0.64
  11  -5  -2    0.41    0.70
 -11  -5   2   -0.40    0.59
  11   5  -2    0.81    0.63
 -10  -5   2   -0.34    0.57
  10  -5  -2    0.59    0.70
  10   5  -2    0.21    0.56
  -9  -5   2   10.49    1.04
   9  -5  -2   10.92    1.05
   9   5  -2   11.31    0.97
   8  -5  -2    0.75    0.54
  -8  -5   2    0.58    0.55
   8   5  -2   -0.14    0.40
  -7  -5   2    8.10    0.81
   7  -5  -2    9.72    0.94
   7   5  -2    8.68    0.82
  -6  -5   2   11.59    0.86
   6  -5  -2   12.22    0.88
   6   5  -2   11.06    0.80
  -5  -5   2   87.56    2.45
   5  -5  -2   78.88    2.42
   5   5  -2   80.77    2.42
   4  -5  -2   64.97    2.03
  -4  -5   2   70.73    2.03
   4   5  -2   68.27    2.07
  -3  -5   2    0.24    0.21
   3   5  -2    0.22    0.30
   2  -5  -2   41.63    1.34
  -2  -5   2   40.20    1.26
   2   5  -2   42.41    1.43
  -1  -5   2  112.39    2.79
   1   5  -2  110.46    3.03
  -1   5   2  113.33    2.94
   0  -5  -2    5.54    0.52
   0   5  -2    4.11    0.51
   0   5   2    4.01    0.42
  -1  -5  -2    3.35    0.39
   1   5   2    2.91    0.35
  -1   5  -2    3.09    0.49
  -2  -5  -2    8.71    0.56
  -2  -5  -2    8.86    0.52
  -2   5  -2    7.86    0.65
   2   5   2    9.06    0.50
   3  -5   2   13.74    0.79
  -3  -5  -2   13.82    0.67
  -3  -5  -2   15.16    0.78
   3   5   2   14.45    0.65
   4  -5   2    1.05    0.39
  -4  -5  -2    1.01    0.29
  -4  -5  -2    0.83    0.31
   4   5   2    0.88    0.26
   5  -5   2    1.27    0.43
  -5  -5  -2    1.51    0.39
  -5  -5  -2    1.53    0.39
   5   5   2    1.66    0.35
  -6  -5  -2   36.51    1.34
  -6  -5  -2   35.80    1.46
   6  -5   2   35.65    1.50
   6   5   2   35.20    1.29
  -7  -5  -2    0.63    0.48
   7  -5   2   -0.20    0.50
  -7  -5  -2    0.83    0.43
   7   5   2    0.00    0.36
  -8  -5  -2    0.71    0.48
   8  -5   2    0.55    0.63
   8   5   2    0.34    0.43
  -9  -5  -2    0.48    0.52
   9  -5   2    0.21    0.62
   9   5   2    0.58    0.61
 -10  -5  -2    9.13    1.04
  10  -5   2    7.78    1.04
  11  -5   2    1.27    0.87
 -11  -5  -2    2.37    0.76
 -12  -5  -2   -0.30    0.74
  12  -5   2    0.96    0.85
 -13  -5  -2    1.79    0.91
  13  -5   2    0.78    0.85
  14  -5   2    0.90    0.92
 -14  -5  -2    0.59    0.85
  15  -5   2    0.97    1.01
 -15  -5  -2    0.08    1.01
 -16  -6   2   -2.02    1.07
  15  -6  -2   -0.81    0.91
 -15  -6   2    0.09    0.99
 -14  -6   2    0.70    0.92
  14  -6  -2    0.83    1.05
 -13  -6   2    5.13    1.13
  13  -6  -2    5.79    1.15
  13   6  -2    6.05    1.03
 -12  -6   2    6.24    1.12
  12  -6  -2    7.29    1.19
  12   6  -2    8.00    1.08
 -11  -6   2    1.45    0.70
  11  -6  -2   -0.21    0.77
  11   6  -2    1.43    0.63
 -10  -6   2   -0.07    0.62
  10  -6  -2    0.44    0.72
  10   6  -2    0.12    0.52
  -9  -6   2   -0.10    0.55
   9  -6  -2   -0.75    0.61
   9   6  -2   -0.12    0.44
  -8  -6   2   10.16    1.01
   8  -6  -2   10.08    0.98
   8   6  -2   11.80    0.97
   7  -6  -2    2.48    0.66
  -7  -6   2    2.96    0.61
   7   6  -2    3.09    0.58
   6  -6  -2    2.49    0.56
  -6  -6   2    1.40    0.44
   6   6  -2    1.88    0.46
   5  -6  -2    0.97    0.45
  -5  -6   2    0.50    0.31
   5   6  -2    0.51    0.35
   4  -6  -2   -0.18    0.29
  -4  -6   2    0.01    0.14
  -4  -6   2    0.29    0.27
   4   6  -2   -0.24    0.31
  -3  -6   2    1.47    0.31
   3   6  -2    1.59    0.40
  -2  -6   2   -0.19    0.18
   2  -6  -2   -0.05    0.27
   2   6  -2    0.35    0.30
  -1  -6   2   37.44    1.17
   1   6  -2   35.78    1.39
  -1   6   2   37.43    1.32
   0  -6  -2    0.57    0.32
   0   6  -2    0.81    0.38
   0   6   2    0.77    0.29
  -1  -6  -2    6.80    0.52
  -1   6  -2    6.54    0.71
   1   6   2    6.39    0.50
  -2  -6  -2   54.78    1.67
  -2  -6  -2   56.27    1.76
   2   6   2   55.41    1.67
  -2   6  -2   55.95    1.94
  -3  -6  -2   32.09    1.27
  -3  -6  -2   31.59    1.13
  -3   6  -2   32.27    1.40
   3   6   2   33.09    1.15
  -4  -6  -2   -0.13    0.28
  -4  -6  -2   -0.12    0.28
   4  -6   2    0.22    0.37
   4   6   2    0.08    0.24
  -5  -6  -2    6.93    0.65
   5  -6   2    7.79    0.84
  -5  -6  -2    8.05    0.74
   5   6   2    6.69    0.57
   6  -6   2   31.20    1.45
  -6  -6  -2   29.27    1.22
  -6  -6  -2   33.68    1.46
   6   6   2   30.16    1.22
  -7  -6  -2    4.68    0.71
   7  -6   2    5.45    0.85
   7   6   2    5.34    0.63
   8  -6   2    0.64    0.60
  -8  -6  -2    2.37    0.64
   9  -6   2    0.90    0.71
  -9  -6  -2    5.35    0.82
 -10  -6  -2    1.97    0.68
  10  -6   2    1.50    0.79
 -11  -6  -2    3.16    0.88
  11  -6   2    2.59    0.89
  12  -6   2    1.57    1.00
 -12  -6  -2    2.36    0.90
  13  -6   2    1.18    0.95
 -13  -6  -2    1.42    0.91
 -14  -6  -2   -0.29    0.92
  14  -6   2    0.78    0.98
 -15  -6  -2   -1.26    1.02
 -16  -7   2   -0.80    1.02
 -15  -7   2    2.89    1.16
  15  -7  -2    4.06    1.21
  14  -7  -2    1.17    1.06
 -14  -7   2    2.00    1.04
  13  -7  -2    0.69    0.86
 -13  -7   2    0.88    0.93
 -12  -7   2   -0.27    0.70
  12  -7  -2    0.26    0.90
  12   7  -2    1.24    0.64
  11  -7  -2   -0.33    0.77
 -11  -7   2    0.52    0.71
  11   7  -2    0.89    0.59
 -10  -7   2    0.86    0.73
  10  -7  -2    0.45    0.74
  10   7  -2    1.70    0.60
   9  -7  -2   12.20    1.24
  -9  -7   2    9.91    1.09
   9   7  -2   11.05    1.09
  -8  -7   2    0.29    0.56
   8  -7  -2   -0.07    0.55
   8   7  -2   -0.37    0.43
  -7  -7   2    3.67    0.66
   7  -7  -2    3.05    0.70
   7   7  -2    2.96    0.61
   6  -7  -2    9.46    0.86
  -6  -7   2   10.66    0.92
   6   7  -2   11.11    0.83
  -5  -7   2    9.76    0.79
   5  -7  -2    8.27    0.81
   5   7  -2    8.24    0.77
  -4  -7   2    8.88    0.66
  -4  -7   2    9.02    0.47
   4  -7  -2    7.63    0.73
   4   7  -2    7.94    0.80
  -3  -7   2   32.65    1.22
   3  -7  -2   32.41    1.31
   3   7  -2   32.83    1.38
   2  -7  -2    0.31    0.33
  -2  -7   2    0.10    0.22
   2   7  -2    0.06    0.32
  -1  -7   2   19.09    0.81
   1   7  -2   18.57    1.04
  -1   7   2   20.78    0.99
   0  -7   2   24.38    0.89
   0  -7  -2   23.43    1.07
   0   7   2   24.28    1.05
   0   7  -2   25.43    1.21
  -1  -7  -2    0.28    0.26
   1   7   2    0.52    0.30
  -1   7  -2    0.26    0.37
  -2  -7  -2   10.96    0.75
  -2  -7  -2   12.20    0.69
  -2   7  -2   12.69    0.89
   2   7   2   11.73    0.72
  -3  -7  -2    2.76    0.42
  -3  -7  -2    2.72    0.47
   3   7   2    2.48    0.42
  -3   7  -2    1.96    0.55
  -4  -7  -2   25.46    1.05
   4  -7   2   26.04    1.30
  -4  -7  -2   27.98    1.26
   4   7   2   25.11    1.08
  -5  -7  -2   17.42    1.02
   5  -7   2   16.10    1.10
  -5  -7  -2   17.08    0.89
   5   7   2   17.74    0.90
  -6  -7  -2    5.03    0.67
   6  -7   2    5.48    0.78
   6   7   2    6.29    0.65
  -7  -7  -2    2.64    0.61
   7  -7   2    1.18    0.60
   8  -7   2    0.23    0.65
  -8  -7  -2    0.00    0.50
   9  -7   2    1.55    0.72
 -10  -7  -2    3.51    0.78
  10  -7   2    3.09    0.85
  11  -7   2   -0.53    0.80
 -11  -7  -2    0.49    0.78
 -12  -7  -2   -0.16    0.79
  12  -7   2    0.48    0.83
 -13  -7  -2   -0.29    0.89
  13  -7   2   -0.32    0.86
  14  -7   2   -1.02    1.02
 -14  -7  -2   -0.48    0.93
 -15  -8   2   -0.93    0.96
  14  -8  -2   -0.97    1.00
 -14  -8   2   -1.42    0.82
 -13  -8   2    0.63    0.97
  13  -8  -2    0.27    0.92
 -12  -8   2   -0.15    0.84
  12  -8  -2    1.41    0.90
 -11  -8   2    0.27    0.70
  11  -8  -2    0.01    0.73
  11   8  -2    0.51    0.68
 -10  -8   2   -0.27    0.67
  10  -8  -2   -0.67    0.61
  10   8  -2    0.70    0.51
  -9  -8   2   -0.31    0.59
   9  -8  -2    0.55    0.63
   9   8  -2    0.43    0.48
  -8  -8   2    4.79    0.81
   8  -8  -2    6.79    1.02
   8   8  -2    6.25    0.84
   7  -8  -2    5.30    0.83
   7   8  -2    6.79    0.85
  -6  -8   2    0.79    0.49
   6  -8  -2    0.00    0.48
   6   8  -2    1.06    0.48
   5  -8  -2    0.29    0.51
  -5  -8   2    0.64    0.41
   5   8  -2    0.66    0.45
  -4  -8   2    1.55    0.39
   4  -8  -2    0.90    0.49
  -4  -8   2    1.58    0.42
   4   8  -2    0.61    0.42
  -3  -8   2    3.08    0.45
   3  -8  -2    3.33    0.55
   3   8  -2    3.11    0.62
  -2  -8   2    6.01    0.55
   2  -8  -2    6.94    0.72
   2   8  -2    5.56    0.70
  -1  -8   2    9.09    0.61
  -1   8   2    8.75    0.72
   1   8  -2    9.01    0.83
   0  -8  -2   -0.28    0.33
   0  -8   2   -0.07    0.20
   0   8   2    0.23    0.35
   0   8  -2    0.20    0.38
  -1  -8  -2    0.00    0.31
  -1   8  -2   -0.44    0.41
   1   8   2    0.44    0.35
  -2  -8  -2    5.24    0.62
  -2  -8  -2    5.29    0.57
  -2   8  -2    5.90    0.81
   2   8   2    5.14    0.61
  -3  -8  -2    5.75    0.60
  -3  -8  -2    6.06    0.67
   3   8   2    5.31    0.62
  -3   8  -2    7.18    0.87
  -4  -8  -2    9.77    0.73
  -4  -8  -2    8.86    0.83
   4  -8   2    9.06    0.85
   4   8   2   10.93    0.76
  -5  -8  -2   -0.12    0.38
   5  -8   2    0.00    0.44
   5   8   2   -0.08    0.32
  -6  -8  -2    0.97    0.47
   6  -8   2    2.02    0.68
  -7  -8  -2    4.00    0.73
   7  -8   2    4.14    0.80
   8  -8   2    0.73    0.67
  -8  -8  -2    1.05    0.59
  -9  -8  -2    1.35    0.62
   9  -8   2    1.03    0.69
  10  -8   2   -0.29    0.74
 -10  -8  -2    0.31    0.69
  11  -8   2    2.09    0.87
 -11  -8  -2    1.20    0.75
 -12  -8  -2   -0.70    0.67
  12  -8   2    0.28    0.93
  13  -8   2   -0.29    0.89
 -13  -8  -2   -0.47    0.78
 -14  -8  -2   -0.98    0.90
 -14  -9   2   -0.54    1.02
  14  -9  -2   -0.82    1.79
 -13  -9   2    0.14    0.80
  13  -9  -2    0.16    0.92
 -12  -9   2    0.35    0.85
  12  -9  -2   -0.02    0.85
 -11  -9   2   -0.83    0.77
  11  -9  -2   -0.12    0.76
  10  -9  -2    7.85    1.15
 -10  -9   2    6.25    1.02
  10   9  -2    8.76    1.67
   9  -9  -2    5.75    0.99
  -9  -9   2    4.44    0.82
   9   9  -2    6.02    0.87
   8  -9  -2    1.04    0.74
  -8  -9   2    0.79    0.62
   8   9  -2    1.41    0.57
  -7  -9   2   -0.17    0.54
   7  -9  -2    0.10    0.55
   7   9  -2    1.28    0.53
   6  -9  -2   13.58    1.09
  -6  -9   2   15.01    1.07
   6   9  -2   16.67    1.13
  -5  -9   2   34.69    1.53
   5  -9  -2   35.38    1.57
   5   9  -2   31.00    1.53
   4  -9  -2   15.92    1.08
  -4  -9   2   12.45    0.91
   4   9  -2   13.65    1.03
   3  -9  -2   18.15    1.10
  -3  -9   2   18.20    0.98
   3   9  -2   17.47    1.13
  -2  -9   2    1.21    0.37
   2   9  -2    1.06    0.52
  -1  -9   2    4.09    0.47
  -1   9   2    4.24    0.68
   1   9  -2    5.23    0.74
   0  -9  -2   16.27    1.02
   0  -9   2   18.00    0.84
   0   9   2   17.45    1.02
   0   9  -2   16.68    1.11
  -1  -9  -2   35.49    1.49
  -1   9  -2   39.40    1.70
   1   9   2   37.42    1.51
  -2  -9  -2    6.73    0.70
  -2  -9  -2    6.75    0.68
  -2   9  -2    6.76    0.91
   2   9   2    7.52    0.76
  -3  -9  -2    5.37    0.68
  -3  -9  -2    5.24    0.60
   3   9   2    5.08    0.66
  -3   9  -2    4.57    0.79
  -4  -9  -2   24.73    1.32
   4  -9   2   24.90    1.40
   4   9   2   24.05    1.18
   5  -9   2   10.47    0.98
  -5  -9  -2   11.00    0.93
   6  -9   2    5.29    0.89
  -6  -9  -2    6.35    0.84
   7  -9   2    0.05    0.54
  -7  -9  -2    0.57    0.53
   8  -9   2    3.96    0.84
  -8  -9  -2    3.29    0.78
  -9  -9  -2    3.19    0.77
   9  -9   2    4.04    0.92
  10  -9   2    1.24    0.83
 -10  -9  -2    1.38    0.78
 -11  -9  -2    0.05    0.74
  11  -9   2    2.69    1.03
  12  -9   2   -0.56    0.80
 -12  -9  -2   -0.03    0.83
  13  -9   2   -2.04    0.91
 -13  -9  -2   -0.75    0.89
 -14 -10   2   -0.69    1.05
  13 -10  -2   -0.83    0.88
 -13 -10   2    0.21    0.90
  12 -10  -2   -0.65    0.91
 -12 -10   2   -0.53    0.87
 -11 -10   2   -0.01    0.74
  11 -10  -2    0.34    0.89
 -10 -10   2   -0.31    0.70
  10 -10  -2    0.51    0.86
  -9 -10   2    1.58    0.70
   9 -10  -2    3.85    0.99
  -8 -10   2    0.16    0.60
   8 -10  -2    2.14    0.82
   8  10  -2    1.86    0.59
  -7 -10   2    0.86    0.57
   7 -10  -2    0.61    0.59
   7  10  -2    1.05    0.54
   6 -10  -2   -0.57    0.47
  -6 -10   2   -0.07    0.47
   6  10  -2   -0.60    0.39
  -5 -10   2    0.35    0.39
   5 -10  -2    0.07    0.47
   5  10  -2    0.41    0.48
   4 -10  -2    1.26    0.55
  -4 -10   2    2.63    0.55
   4  10  -2    2.39    0.63
  -3 -10   2   -0.04    0.36
   3 -10  -2   -0.15    0.49
   3  10  -2    0.32    0.51
   2 -10  -2    1.34    0.57
  -2 -10   2    0.89    0.39
   2  10  -2    0.83    0.50
  -1 -10   2    1.16    0.36
  -1  10   2    0.41    0.51
   1  10  -2    0.83    0.58
   0 -10  -2    9.34    0.88
   0 -10   2   10.20    0.71
   0  10  -2   10.01    1.09
   0  10   2    9.87    0.96
  -1 -10  -2    1.82    0.53
   1  10   2    2.33    0.58
  -1  10  -2    2.38    0.66
  -2 -10  -2   -0.01    0.35
  -2 -10  -2    0.04    0.38
   2  10   2    0.35    0.43
  -2  10  -2    0.70    0.62
   3 -10   2    0.02    0.49
  -3 -10  -2   -0.12    0.35
  -3 -10  -2   -0.11    0.40
   3  10   2   -0.02    0.39
  -3  10  -2    0.05    0.54
  -4 -10  -2    4.48    0.66
   4 -10   2    6.62    0.92
   5 -10   2    3.56    0.80
  -5 -10  -2    3.70    0.68
  -6 -10  -2    0.59    0.53
   6 -10   2    0.96    0.58
  -7 -10  -2   -0.08    0.53
   7 -10   2   -0.01    0.53
   8 -10   2    2.79    0.81
  -8 -10  -2    0.20    0.55
   9 -10   2    0.22    0.70
  -9 -10  -2   -0.49    0.63
 -10 -10  -2    1.64    0.82
  10 -10   2    2.26    0.97
 -11 -10  -2    1.44    0.87
  11 -10   2    1.21    0.90
 -12 -10  -2   -0.25    0.88
  12 -10   2    0.26    1.03
 -13 -10  -2   -0.60    0.95
 -13 -11   2    0.02    0.91
 -12 -11   2   -1.03    0.82
  12 -11  -2    0.24    0.91
 -11 -11   2    3.13    1.06
  11 -11  -2    3.52    1.19
 -10 -11   2   19.13    1.61
  10 -11  -2   18.98    1.69
  -9 -11   2   18.94    1.59
   9 -11  -2   16.42    1.54
  -8 -11   2    3.18    0.78
   8 -11  -2    3.61    0.97
  -7 -11   2    0.64    0.55
   7 -11  -2    1.60    0.71
   7  11  -2    1.73    0.62
  -6 -11   2    7.18    0.90
   6 -11  -2    7.72    1.08
   6  11  -2    8.01    0.99
   5 -11  -2   13.27    1.09
  -5 -11   2   15.59    1.14
   5  11  -2   15.43    1.17
   4 -11  -2    8.51    0.98
  -4 -11   2   10.76    0.94
   4  11  -2    9.83    1.07
  -3 -11   2    8.73    0.82
   3 -11  -2    9.36    1.01
   3  11  -2    9.11    1.04
   2 -11  -2    9.35    0.98
  -2 -11   2    8.16    0.77
   2  11  -2    8.09    0.98
  -1 -11   2    2.08    0.44
   1  11  -2    2.37    0.67
  -1  11   2    2.58    0.67
   0 -11  -2    8.51    0.87
   0 -11   2    8.05    0.70
   0  11   2   10.03    1.03
   0  11  -2    9.43    1.06
  -1 -11  -2   12.51    0.95
  -1 -11  -2   10.58    0.90
  -1  11  -2   11.49    1.09
   1  11   2   10.45    0.93
  -2 -11  -2    4.58    0.67
  -2 -11  -2    4.20    0.65
  -2  11  -2    4.09    0.82
   2  11   2    3.05    0.64
   3 -11   2    2.02    0.64
  -3 -11  -2    1.43    0.51
  -4 -11  -2    7.42    0.83
   4 -11   2    7.72    1.03
   5 -11   2   12.97    1.13
  -5 -11  -2   13.29    1.08
  -6 -11  -2    7.08    0.94
   6 -11   2    8.21    1.06
  -7 -11  -2   -0.18    0.56
   7 -11   2    0.16    0.59
  -8 -11  -2   -0.70    0.57
   8 -11   2    0.61    0.78
  -9 -11  -2    4.49    0.93
   9 -11   2    5.62    1.12
 -10 -11  -2    8.29    1.24
  10 -11   2    8.09    1.29
 -11 -11  -2    2.06    0.98
  11 -11   2    5.06    1.18
 -12 -11  -2    0.26    0.80
 -12 -12   2   -0.95    0.94
 -11 -12   2   -0.70    0.72
  11 -12  -2   -0.04    0.96
  10 -12  -2    1.57    0.91
 -10 -12   2    0.12    0.82
   9 -12  -2   -0.12    0.73
  -9 -12   2   -0.77    0.69
  -8 -12   2   -0.67    0.61
   8 -12  -2   -0.60    0.63
   7 -12  -2    1.22    0.81
  -7 -12   2   -0.05    0.53
   6 -12  -2   -0.25    0.65
  -6 -12   2    1.14    0.58
   6  12  -2    1.62    0.62
   5 -12  -2    0.31    0.55
  -5 -12   2   -0.45    0.46
   5  12  -2    0.05    0.49
   4 -12  -2    0.02    0.56
   4  12  -2    0.62    0.50
  -3 -12   2    0.36    0.41
   3 -12  -2    0.70    0.57
   3  12  -2    0.83    0.59
   2 -12  -2    2.71    0.67
  -2 -12   2    2.13    0.51
   2  12  -2    1.78    0.71
   1 -12  -2    2.60    0.65
   1 -12  -2    2.75    0.64
  -1 -12   2    1.22    0.58
   1  12  -2    1.20    0.65
   0 -12  -2    9.53    0.93
   0  12  -2    9.93    1.18
   0  12   2    8.37    1.00
  -1 -12  -2    0.17    0.34
  -1 -12  -2    0.45    0.43
   1  12   2   -0.07    0.50
  -1  12  -2   -0.39    0.57
  -2 -12  -2    1.06    0.46
  -2  12  -2   -0.04    0.60
  -3 -12  -2    0.06    0.42
   3 -12   2    0.97    0.57
  -4 -12  -2    2.97    0.68
   4 -12   2    3.08    0.75
  -5 -12  -2    4.73    0.79
   5 -12   2    6.00    0.96
   6 -12   2    2.13    0.74
  -6 -12  -2    2.03    0.71
   7 -12   2    1.03    0.69
  -7 -12  -2    0.25    0.60
   8 -12   2    1.62    0.92
  -8 -12  -2    1.46    0.70
  -9 -12  -2   -0.79    0.58
   9 -12   2   -0.92    0.67
  10 -12   2   -0.20    0.91
 -10 -12  -2   -1.14    0.59
 -11 -12  -2   -0.46    0.72
 -11 -13   2   -1.97    0.74
 -10 -13   2    1.06    0.93
  10 -13  -2    0.84    1.06
  -9 -13   2    3.42    1.00
   9 -13  -2    2.61    1.05
   8 -13  -2    2.96    0.96
  -8 -13   2    0.67    0.70
  -7 -13   2   -0.36    0.63
   7 -13  -2    0.28    0.78
   6 -13  -2    1.93    0.86
  -6 -13   2    1.69    0.67
  -5 -13   2    9.19    1.02
   5 -13  -2   10.84    1.24
   5  13  -2    8.47    1.13
   4 -13  -2    6.53    0.97
  -4 -13   2    7.79    0.92
   4  13  -2    5.23    0.97
   3 -13  -2    2.92    0.78
  -3 -13   2    2.67    0.59
   3  13  -2    3.42    0.84
   2 -13  -2    1.78    0.59
   2  13  -2    1.67    0.74
   1 -13  -2    5.98    0.89
   1 -13  -2    4.28    0.78
   1  13  -2    3.47    0.87
   0 -13  -2   15.66    1.17
   0 -13  -2   17.53    1.13
   0  13   2   17.54    1.92
   0  13  -2   14.80    1.36
  -1 -13  -2   10.77    0.97
  -1  13  -2   11.74    1.39
  -2 -13  -2    3.02    0.66
  -2  13  -2    1.90    0.83
   3 -13   2    3.25    0.83
  -3 -13  -2    2.37    0.61
   4 -13   2    7.24    1.08
  -4 -13  -2    6.00    0.91
  -5 -13  -2    4.60    0.77
   5 -13   2    5.69    0.99
  -6 -13  -2    2.83    0.80
   6 -13   2    3.44    0.95
  -7 -13  -2   -0.41    0.62
   7 -13   2    0.99    0.73
  -8 -13  -2   -0.65    0.67
   8 -13   2    0.85    0.90
   9 -13   2    4.72    1.12
  -9 -13  -2    4.32    1.07
 -10 -13  -2    2.43    1.01
 -10 -14   2   -0.24    0.84
  -9 -14   2   -0.39    0.78
   9 -14  -2   -1.50    0.83
   8 -14  -2   -0.06    0.78
  -8 -14   2   -0.65    0.75
   7 -14  -2    0.11    0.73
  -7 -14   2    0.20    0.66
   6 -14  -2    0.30    0.67
  -6 -14   2    0.60    0.68
   5 -14  -2   -0.06    0.65
  -5 -14   2   -0.07    0.58
  -4 -14   2   -0.10    0.53
   4 -14  -2    0.40    0.60
   4  14  -2   -0.04    0.59
   3 -14  -2    2.25    0.75
   3  14  -2    1.66    0.82
   2 -14  -2    1.42    0.68
   2 -14  -2    2.63    0.69
   2  14  -2    1.17    0.75
   1 -14  -2    2.32    0.66
   1 -14  -2    1.69    0.71
   1  14  -2    2.30    0.83
   0 -14  -2    0.64    0.45
   0  14  -2    1.09    0.70
  -1 -14  -2    1.95    0.57
  -1  14  -2    0.31    0.72
   2 -14   2    2.95    0.79
  -2 -14  -2    2.73    0.66
  -3 -14  -2    3.37    0.72
   3 -14   2    3.52    0.82
  -4 -14  -2    0.79    0.59
   4 -14   2    1.32    0.71
   5 -14   2    0.16    0.63
  -5 -14  -2   -0.05    0.57
  -6 -14  -2    0.04    0.65
   6 -14   2    0.23    0.76
   7 -14   2    1.64    0.92
  -7 -14  -2    1.58    0.83
  -8 -14  -2    0.96    0.80
  -9 -14  -2   -1.13    0.62
   8 -15  -2   -0.94    0.86
  -8 -15   2   -1.26    0.73
  -7 -15   2   -0.54    0.63
   7 -15  -2   -0.83    0.80
  -6 -15   2    1.60    0.78
   6 -15  -2    1.75    0.85
   5 -15  -2    2.23    0.87
   4 -15  -2    2.23    0.83
   3 -15  -2    3.76    0.77
   3 -15  -2    3.30    0.85
   2 -15  -2    2.18    0.61
   2  15  -2    0.21    0.68
   1  15  -2   -0.39    0.68
   0  15  -2    8.62    1.29
  -1 -15  -2    3.76    0.71
  -1  15  -2    3.29    1.00
  -2 -15  -2    1.75    0.63
   2 -15   2    3.35    0.83
  -3 -15  -2    0.54    0.53
   3 -15   2    0.88    0.65
  -4 -15  -2    2.98    0.73
   4 -15   2    5.13    0.99
  -5 -15  -2    2.55    0.78
   5 -15   2    3.96    0.98
   6 -15   2    3.37    1.04
  -6 -15  -2    2.58    0.86
  -7 -15  -2   -0.10    0.77
   6 -16  -2    0.46    0.79
   5 -16  -2    0.72    0.86
   4 -16  -2    1.41    0.83
   2 -16  -2    3.04    1.16
   1  16  -2    0.72    0.84
   0  16  -2   -0.56    0.73
   2 -16   2    4.16    0.89
  -2 -16  -2    1.49    0.79
  -3 -16  -2    0.07    0.57
   3 -16   2    0.85    0.74
  -4 -16  -2    0.17    0.58
   4 -16   2    1.58    0.78
  -5 -16  -2   -0.16    0.65
   1 -17   2    4.99    0.93
   2 -17   2    2.98    1.00
  17   0  -3    0.38    1.01
  16   0  -3   -0.01    0.94
  15   0  -3    0.05    0.86
  14   0  -3   -0.46    0.78
  13   0  -3   -0.94    0.75
  12   0  -3   -0.21    0.71
  11   0  -3   -0.26    0.64
  10   0  -3   -0.09    0.65
   9   0  -3   -0.38    0.57
  -9   0   3    0.06    0.60
  -8   0   3   -0.03    0.45
   8   0  -3   -0.32    0.50
   7   0  -3   -0.01    0.40
  -7   0   3   -0.24    0.36
  -6   0   3   -0.10    0.36
   6   0  -3    0.32    0.40
   5   0  -3    0.17    0.33
   4   0  -3    0.35    0.34
   3   0  -3   -0.54    0.18
   2   0  -3   -0.32    0.17
   1   0  -3   -0.41    0.14
   0   0  -3   -0.14    0.10
   0   0  -3   -0.07    0.18
  -1   0  -3    0.02    0.14
  -1   0  -3    0.16    0.24
  -2   0  -3   -0.15    0.12
   2   0   3   -0.15    0.16
  -2   0  -3    0.01    0.27
   3   0   3   -0.21    0.18
  -3   0  -3   -0.05    0.30
  -3   0  -3   -0.02    0.16
  -4   0  -3   -0.06    0.20
  -4   0  -3   -0.34    0.33
   4   0   3   -0.14    0.21
  -5   0  -3   -0.03    0.25
  -5   0  -3    0.09    0.40
   5   0   3    0.14    0.28
  -6   0  -3    0.11    0.42
   6   0   3   -0.07    0.32
  -6   0  -3   -0.18    0.31
  -7   0  -3   -0.12    0.37
  -7   0  -3    0.06    0.51
   7   0   3    0.23    0.44
  -8   0  -3    0.68    0.45
   8   0   3   -0.44    0.46
  -8   0  -3    0.14    0.56
   9   0   3   -0.60    0.54
  -9   0  -3    0.14    0.58
  -9   0  -3   -0.05    0.51
 -10   0  -3   -0.31    0.57
  10   0   3    0.14    0.52
 -10   0  -3    0.47    0.66
 -11   0  -3    0.00    0.67
  11   0   3   -0.49    0.60
 -11   0  -3   -0.17    0.62
 -12   0  -3   -0.58    0.69
  12   0   3    0.09    0.68
 -12   0  -3    1.80    0.93
 -13   0  -3   -0.88    0.78
  13   0   3    0.07    0.82
  17  -1  -3    1.03    0.96
  17   1  -3    1.76    1.03
  16  -1  -3    1.37    1.00
  16   1  -3    2.08    1.04
  15  -1  -3    1.47    0.98
  15   1  -3    0.06    0.87
  14  -1  -3    3.63    0.98
  14   1  -3    4.65    1.01
 -13  -1   3   -0.45    0.84
  13  -1  -3   -0.41    0.67
  13   1  -3    0.92    0.82
 -12  -1   3    1.42    0.87
  12  -1  -3    2.30    0.88
  12   1  -3    1.40    0.74
 -11  -1   3    1.79    0.85
  11  -1  -3    1.85    0.82
  11   1  -3    1.14    0.71
 -10  -1   3    0.58    0.65
  10  -1  -3   -0.77    0.66
  10   1  -3    0.06    0.58
  -9  -1   3   11.42    1.06
   9  -1  -3   12.27    1.02
   9   1  -3   13.48    1.03
  -8  -1   3   55.60    1.98
   8  -1  -3   52.29    1.88
   8   1  -3   50.99    1.88
  -7  -1   3   55.59    1.92
   7  -1  -3   58.54    1.93
   7   1  -3   54.58    1.88
   6  -1  -3    0.27    0.35
  -6  -1   3   -0.06    0.36
   6   1  -3    0.38    0.41
  -5  -1   3    1.14    0.37
   5   1  -3    0.87    0.36
  -4  -1   3   17.05    0.78
   4  -1  -3   17.89    0.77
   4   1  -3   16.52    0.79
   3  -1  -3    5.62    0.48
  -3  -1   3    5.44    0.45
   3   1  -3    5.62    0.45
   2  -1  -3   32.90    0.95
   2  -1  -3   32.20    0.96
   2   1  -3   32.16    0.98
   1  -1  -3    2.56    0.21
   1  -1  -3    2.54    0.26
   1   1  -3    1.90    0.25
   0  -1  -3   56.71    1.51
   0  -1  -3   57.14    1.32
   0   1  -3   56.89    1.50
   0   1  -3   57.36    1.54
  -1  -1  -3    0.90    0.25
  -1   1  -3    1.24    0.23
  -1   1  -3    0.94    0.29
   1   1   3    1.27    0.11
  -2  -1  -3    1.57    0.34
  -2  -1  -3    1.06    0.21
   2  -1   3    1.15    0.26
  -2   1  -3    1.17    0.35
   2   1   3    1.94    0.21
  -3  -1  -3    0.35    0.30
   3  -1   3    0.90    0.26
  -3  -1  -3    0.60    0.20
   3   1   3    0.40    0.21
  -3   1  -3    0.44    0.38
  -3   1  -3    0.81    0.20
  -4  -1  -3    6.47    0.62
  -4  -1  -3    6.45    0.48
   4  -1   3    5.95    0.45
  -4   1  -3    5.84    0.62
   4   1   3    6.10    0.45
  -4   1  -3    6.36    0.47
  -5  -1  -3    6.60    0.65
  -5  -1  -3    6.01    0.54
   5  -1   3    6.28    0.57
   5   1   3    5.97    0.51
  -5   1  -3    5.66    0.54
  -5   1  -3    6.62    0.68
  -6  -1  -3   22.40    1.13
   6  -1   3   22.42    1.01
  -6  -1  -3   21.34    0.97
  -6   1  -3   19.39    1.17
   6   1   3   19.56    0.93
  -6   1  -3   20.73    0.94
   7  -1   3   38.34    1.46
  -7  -1  -3   36.78    1.56
  -7  -1  -3   38.09    1.49
   7   1   3   36.80    1.40
  -7   1  -3   37.31    1.68
  -7   1  -3   36.03    1.42
  -8  -1  -3    5.66    0.70
  -8  -1  -3    5.68    0.84
   8  -1   3    5.24    0.72
  -8   1  -3    5.04    0.67
  -8   1  -3    5.30    0.91
   8   1   3    5.76    0.75
   9  -1   3   11.19    1.06
  -9  -1  -3    9.11    0.93
  -9  -1  -3    9.47    1.05
  -9   1  -3    9.35    1.13
   9   1   3   10.95    1.00
  -9   1  -3    7.76    0.88
  10  -1   3    7.80    0.96
 -10  -1  -3   10.39    1.13
 -10  -1  -3    9.40    0.99
 -10   1  -3   10.07    1.21
  10   1   3    9.56    0.99
 -10   1  -3    6.82    0.93
 -11  -1  -3    4.14    0.86
  11  -1   3    3.63    0.85
 -11  -1  -3    4.53    0.89
  11   1   3    3.87    0.79
 -11   1  -3    4.43    0.95
 -11   1  -3    3.01    0.81
 -12  -1  -3    0.89    0.81
  12  -1   3    1.70    0.83
  12   1   3    1.58    0.75
 -12   1  -3    0.68    0.79
 -13  -1  -3   -1.36    0.72
  13  -1   3   -0.33    0.67
 -14  -1  -3    0.60    0.98
 -15  -1  -3   -0.53    1.27
  17  -2  -3   -0.71    0.87
  17   2  -3    1.91    1.00
  16  -2  -3    0.57    1.03
  16   2  -3    0.74    0.86
  15  -2  -3   -0.46    0.89
 -15  -2   3   -1.00    0.98
  15   2  -3    1.26    0.85
 -14  -2   3   -1.23    0.87
  14  -2  -3   -0.13    0.78
  14   2  -3    0.80    0.76
  13  -2  -3    0.66    0.86
 -13  -2   3    1.56    0.84
  13   2  -3    1.10    0.80
  12  -2  -3    2.07    0.80
 -12  -2   3    1.77    0.89
  12   2  -3    2.19    0.76
  11  -2  -3    2.51    0.86
 -11  -2   3    1.96    0.87
  11   2  -3    2.48    0.82
 -10  -2   3   -0.03    0.62
  10  -2  -3    0.85    0.65
  10   2  -3    0.07    0.64
  -9  -2   3    0.88    0.59
   9  -2  -3    1.17    0.64
   9   2  -3    1.16    0.64
  -8  -2   3    0.18    0.45
   8  -2  -3    0.54    0.50
   8   2  -3   -0.20    0.49
  -7  -2   3    0.11    0.39
   7  -2  -3    1.23    0.49
   7   2  -3    0.57    0.46
  -6  -2   3    9.12    0.76
   6  -2  -3    8.11    0.67
   6   2  -3    7.79    0.64
  -5  -2   3    3.04    0.42
   5   2  -3    3.38    0.47
  -4  -2   3   18.69    0.81
   4  -2  -3   19.10    0.81
   4   2  -3   18.61    0.85
  -3  -2   3    1.04    0.28
   3  -2  -3    1.05    0.28
   3   2  -3    0.34    0.26
   2  -2  -3  262.14    6.18
   2  -2  -3  262.22    6.08
  -2  -2   3  270.66    6.08
   2   2  -3  258.66    6.18
   1  -2  -3    3.20    0.34
   1  -2  -3    3.15    0.24
   1   2  -3    3.91    0.42
   1   2  -3    3.42    0.36
   0  -2  -3   43.60    1.04
   0  -2  -3   43.76    1.26
   0   2  -3   43.19    1.29
   0   2  -3   44.32    1.31
  -1   2  -3    3.59    0.38
   1   2   3    2.07    0.10
  -1   2  -3    3.45    0.42
  -2  -2  -3    0.01    0.26
  -2  -2  -3   -0.24    0.17
   2   2   3    0.14    0.13
  -2   2  -3    0.15    0.24
  -2   2  -3   -0.26    0.28
  -3  -2  -3    0.42    0.32
   3  -2   3   -0.25    0.21
  -3  -2  -3    0.09    0.18
  -3   2  -3    0.37    0.33
   3   2   3    0.35    0.19
  -3   2  -3    0.28    0.18
  -4  -2  -3    2.16    0.42
  -4  -2  -3    2.23    0.33
   4  -2   3    2.66    0.41
  -4   2  -3    1.99    0.29
  -4   2  -3    1.84    0.47
   4   2   3    2.13    0.31
   5  -2   3    2.95    0.46
  -5  -2  -3    2.24    0.36
  -5  -2  -3    3.47    0.52
   5   2   3    2.63    0.40
  -5   2  -3    2.37    0.53
  -5   2  -3    2.15    0.36
  -6  -2  -3   12.50    0.85
   6  -2   3   11.49    0.77
  -6  -2  -3   13.01    0.81
   6   2   3   11.34    0.73
  -6   2  -3   11.96    0.78
  -6   2  -3   12.09    0.95
  -7  -2  -3    4.53    0.60
   7  -2   3    2.52    0.57
  -7  -2  -3    3.65    0.65
   7   2   3    4.03    0.57
  -7   2  -3    3.13    0.53
  -7   2  -3    3.77    0.78
  -8  -2  -3    0.18    0.54
   8  -2   3    1.66    0.58
  -8  -2  -3    1.35    0.50
  -8   2  -3    1.15    0.53
   8   2   3    0.62    0.49
  -8   2  -3    0.31    0.64
   9  -2   3    6.81    0.91
  -9   2  -3    6.16    1.05
  -9   2  -3    6.50    0.82
 -10  -2  -3    0.50    0.63
 -10  -2  -3    0.52    0.60
  10  -2   3    0.71    0.67
  10   2   3   -0.06    0.53
 -10   2  -3    0.32    0.62
 -10   2  -3   -0.16    0.64
 -11  -2  -3    0.28    0.67
  11  -2   3    0.49    0.69
  11   2   3    0.08    0.63
 -12  -2  -3    2.50    0.88
  12  -2   3    2.55    0.87
  13  -2   3    0.40    0.82
 -13  -2  -3    0.59    0.87
 -14  -2  -3    0.13    0.92
  14  -2   3   -0.22    0.87
 -15  -2  -3   -0.72    0.96
  17   3  -3    1.46    0.99
  16  -3  -3   -0.41    1.03
 -16  -3   3   -1.19    1.10
  16   3  -3    1.28    0.90
  15  -3  -3   -0.66    0.94
 -15  -3   3   -0.43    0.96
  15   3  -3    1.29    0.80
  14  -3  -3    3.35    1.09
 -14  -3   3    5.50    1.24
  14   3  -3    7.07    1.13
 -13  -3   3   15.49    1.53
  13  -3  -3   10.62    1.29
  13   3  -3   15.52    1.40
  12  -3  -3    4.05    0.92
 -12  -3   3    5.19    0.97
  12   3  -3    5.26    0.91
 -11  -3   3    1.26    0.83
  11  -3  -3    0.74    0.67
  11   3  -3    0.19    0.60
  10  -3  -3    0.82    0.66
 -10  -3   3    0.23    0.62
  10   3  -3   -0.27    0.65
  -9  -3   3    8.70    0.98
   9  -3  -3   10.32    1.02
   9   3  -3    8.90    1.00
  -8  -3   3   46.62    1.83
   8  -3  -3   47.90    1.81
   8   3  -3   47.93    1.84
  -7  -3   3   20.56    1.14
   7  -3  -3   21.74    1.10
   7   3  -3   20.69    1.12
   6  -3  -3    0.22    0.39
  -6  -3   3    0.38    0.33
   6   3  -3    0.21    0.33
  -5  -3   3    0.42    0.30
   5  -3  -3    0.81    0.34
   5   3  -3    0.67    0.32
   4  -3  -3   29.21    1.06
  -4  -3   3   32.52    1.12
   4   3  -3   27.44    1.06
  -3  -3   3   44.82    1.35
   3  -3  -3   44.45    1.34
   3   3  -3   45.30    1.44
   2  -3  -3  230.44    5.49
  -2  -3   3  238.89    5.48
   2   3  -3  236.69    5.64
   1  -3  -3   67.07    1.87
   1  -3  -3   68.05    1.70
   1   3  -3   66.17    1.80
   1   3  -3   68.42    1.91
   0  -3  -3    1.34    0.26
   0  -3  -3    1.00    0.17
   0   3  -3    1.31    0.30
   0   3  -3    1.24    0.31
  -1  -3  -3    1.03    0.27
   1   3   3    1.07    0.15
  -1   3  -3    0.37    0.33
  -1   3  -3    0.30    0.26
  -2  -3  -3    0.81    0.27
   2   3   3    0.46    0.14
  -2   3  -3    0.59    0.33
  -2   3  -3    0.45    0.29
   3  -3   3    7.04    0.53
  -3  -3  -3    6.84    0.51
  -3  -3  -3    7.70    0.58
   3   3   3    7.22    0.38
  -3   3  -3    7.24    0.70
  -4  -3  -3    6.76    0.55
   4  -3   3    7.01    0.60
  -4  -3  -3    7.82    0.61
  -4   3  -3    7.96    0.82
   4   3   3    7.30    0.45
  -5  -3  -3   34.94    1.34
   5  -3   3   39.05    1.41
  -5  -3  -3   35.98    1.33
   5   3   3   34.68    1.17
  -5   3  -3   37.85    1.57
   6  -3   3   16.67    0.92
  -6  -3  -3   15.35    0.96
  -6  -3  -3   17.66    0.92
   6   3   3   14.23    0.79
  -6   3  -3   15.13    1.08
  -7  -3  -3   22.00    1.17
   7  -3   3   21.51    1.14
  -7  -3  -3   20.90    1.14
  -7   3  -3   20.40    1.31
   7   3   3   19.76    1.00
  -8  -3  -3    0.20    0.54
   8  -3   3    1.11    0.59
  -8  -3  -3    1.21    0.50
   8   3   3    0.80    0.51
  -8   3  -3    0.68    0.68
   9  -3   3   12.02    1.05
  -9  -3  -3   12.04    1.09
  -9  -3  -3   11.48    1.05
   9   3   3   12.24    1.02
  -9   3  -3   11.23    1.24
  10  -3   3    9.80    1.09
 -10  -3  -3    6.28    0.90
  11  -3   3   20.49    1.52
 -11  -3  -3   21.73    1.55
  12  -3   3    7.86    1.15
 -12  -3  -3    7.15    1.10
  13  -3   3   -0.69    0.71
 -13  -3  -3   -1.33    0.77
  14  -3   3   -0.03    0.86
 -14  -3  -3    0.68    0.95
 -15  -3  -3   -0.82    0.94
  15  -3   3    0.79    1.02
 -17  -4   3   -0.09    1.08
 -16  -4   3    0.98    1.19
  16  -4  -3   -0.25    1.06
  16   4  -3    4.57    1.02
 -15  -4   3   -0.62    1.02
  15  -4  -3   -0.51    0.95
  15   4  -3    1.91    0.89
  14  -4  -3    0.09    0.87
 -14  -4   3   -0.02    0.96
  14   4  -3    1.17    0.82
 -13  -4   3    1.76    0.87
  13  -4  -3    1.14    0.91
  13   4  -3    1.31    0.78
  12  -4  -3   -0.76    0.72
 -12  -4   3    0.24    0.78
  12   4  -3   -0.39    0.65
  11  -4  -3    1.32    0.81
 -11  -4   3    3.56    0.92
  11   4  -3    2.09    0.75
 -10  -4   3   14.26    1.33
  10  -4  -3   12.56    1.16
  10   4  -3   13.26    1.11
   9  -4  -3    0.24    0.58
  -9  -4   3    0.07    0.53
   9   4  -3    0.03    0.54
  -8  -4   3    0.68    0.47
   8  -4  -3    0.18    0.51
   8   4  -3   -0.13    0.48
  -7  -4   3    0.65    0.41
   7  -4  -3    0.85    0.51
   7   4  -3    0.26    0.38
   6  -4  -3   64.82    2.07
  -6  -4   3   66.29    2.09
   6   4  -3   61.36    2.02
   5  -4  -3   10.43    0.68
  -5  -4   3   10.51    0.69
   5   4  -3    8.95    0.66
   4  -4  -3    2.26    0.40
  -3  -4   3   30.44    1.04
   3  -4  -3   31.68    1.07
   3   4  -3   30.03    1.14
   2  -4  -3   16.78    0.69
  -2  -4   3   18.09    0.68
   2   4  -3   16.35    0.80
   1  -4  -3   12.05    0.65
  -1  -4   3   12.03    0.48
   1  -4  -3   11.84    0.53
   1   4  -3   12.68    0.62
   1   4  -3   12.71    0.69
   0  -4  -3    8.27    0.53
   0   4   3    8.47    0.43
   0   4  -3    7.82    0.54
   0   4  -3    8.10    0.58
  -1  -4  -3    4.97    0.39
  -1   4  -3    3.80    0.48
  -1   4  -3    4.04    0.50
   1   4   3    3.93    0.30
  -2  -4  -3    2.71    0.36
  -2   4  -3    2.19    0.42
   2   4   3    2.51    0.26
  -2   4  -3    2.26    0.44
  -3  -4  -3    5.26    0.51
  -3  -4  -3    5.07    0.46
   3  -4   3    5.27    0.56
  -3   4  -3    6.23    0.68
   3   4   3    5.40    0.36
  -4  -4  -3    0.18    0.23
   4  -4   3    0.21    0.32
  -4  -4  -3    0.78    0.35
   4   4   3    0.37    0.20
  -4   4  -3    0.70    0.43
  -5  -4  -3    7.19    0.61
  -5  -4  -3    8.48    0.72
   5  -4   3    7.71    0.76
   5   4   3    7.19    0.53
  -5   4  -3    6.95    0.83
  -6  -4  -3    1.17    0.38
  -6  -4  -3    0.82    0.46
   6  -4   3    1.43    0.47
   6   4   3    0.99    0.35
  -6   4  -3    1.03    0.56
  -7  -4  -3    3.76    0.66
  -7  -4  -3    2.51    0.57
   7  -4   3    3.11    0.63
   7   4   3    3.32    0.53
  -7   4  -3    1.92    0.68
  -8  -4  -3   14.22    1.09
  -8  -4  -3   15.28    1.07
   8  -4   3   14.46    1.08
  -8   4  -3   15.09    1.29
   8   4   3   13.73    0.94
   9  -4   3   20.07    1.38
  -9  -4  -3   23.20    1.44
  10  -4   3    1.65    0.77
 -10  -4  -3    1.31    0.60
 -11  -4  -3   -0.54    0.64
  11  -4   3   -0.54    0.64
  12  -4   3   -0.44    0.78
 -12  -4  -3    0.02    0.72
  13  -4   3   -0.82    0.83
 -13  -4  -3   -1.13    0.72
 -14  -4  -3   -0.93    0.84
  14  -4   3   -1.56    0.81
 -15  -4  -3   -1.17    0.96
  15  -4   3   -1.26    0.92
 -16  -5   3    0.27    1.22
  16  -5  -3    0.70    1.11
  15  -5  -3   -0.10    0.87
 -15  -5   3    0.44    1.10
  15   5  -3    1.17    0.83
 -14  -5   3    0.60    0.99
  14  -5  -3   -1.01    0.77
  14   5  -3    0.92    0.77
  13  -5  -3    2.48    0.95
 -13  -5   3    4.03    1.06
  13   5  -3    4.98    1.02
 -12  -5   3   -0.17    0.69
  12  -5  -3   -0.75    0.74
  12   5  -3   -0.47    0.60
  11  -5  -3    3.34    0.86
 -11  -5   3    1.47    0.72
  11   5  -3    3.12    0.80
 -10  -5   3    1.82    0.69
  10  -5  -3    1.35    0.72
  10   5  -3    0.12    0.61
  -9  -5   3   13.48    1.16
   9  -5  -3   14.33    1.16
   9   5  -3   13.43    1.12
   8  -5  -3    6.24    0.83
  -8  -5   3    6.59    0.84
   8   5  -3    6.47    0.82
   7  -5  -3    3.37    0.62
  -7  -5   3    2.61    0.55
   7   5  -3    2.46    0.54
   6  -5  -3   16.48    0.98
  -6  -5   3   13.17    0.92
   6   5  -3   14.05    0.91
  -5  -5   3   68.87    2.12
   5  -5  -3   68.52    2.15
   5   5  -3   70.04    2.19
   4  -5  -3  125.92    3.37
  -4  -5   3  126.69    3.33
   4   5  -3  130.33    3.46
   3  -5  -3   87.00    2.40
  -3  -5   3   86.32    2.36
   3   5  -3   89.60    2.55
  -2  -5   3  233.07    5.57
   2  -5  -3  242.03    5.66
   2   5  -3  232.10    5.83
   1  -5  -3   18.91    0.75
   1  -5  -3   17.82    0.86
  -1  -5   3   19.99    0.68
   1   5  -3   19.45    0.95
   0  -5   3    0.23    0.13
   0  -5  -3   -0.34    0.21
   0   5   3    0.09    0.20
   0   5  -3    0.29    0.30
  -1  -5  -3   27.73    1.02
  -1   5  -3   26.07    1.17
   1   5   3   26.65    0.90
  -2  -5  -3   42.14    1.36
  -2   5  -3   43.71    1.56
   2   5   3   40.88    1.22
  -2   5  -3   39.73    1.55
  -3  -5  -3   14.44    0.81
  -3  -5  -3   15.65    0.76
   3   5   3   16.10    0.66
  -3   5  -3   15.29    1.01
  -3   5  -3   16.65    0.95
  -4  -5  -3    0.71    0.37
  -4  -5  -3    0.81    0.30
   4  -5   3    0.74    0.40
   4   5   3    1.28    0.28
  -4   5  -3    0.94    0.53
  -5  -5  -3   26.75    1.13
   5  -5   3   23.10    1.18
  -5  -5  -3   27.86    1.21
  -5   5  -3   26.96    1.43
   5   5   3   26.23    0.99
   6  -5   3   38.14    1.59
  -6  -5  -3   37.93    1.47
  -6  -5  -3   37.99    1.54
   6   5   3   37.65    1.31
   7  -5   3   25.30    1.33
  -7  -5  -3   26.33    1.35
  -7  -5  -3   23.86    1.23
   7   5   3   23.73    1.10
   8  -5   3    2.52    0.69
  -8  -5  -3    1.85    0.56
   9  -5   3    0.96    0.69
  -9  -5  -3    0.02    0.49
 -10  -5  -3    4.31    0.78
  10  -5   3    0.25    0.76
 -11  -5  -3    2.77    0.86
  11  -5   3    3.96    0.95
 -12  -5  -3    3.57    0.95
  12  -5   3    5.49    1.12
  13  -5   3    1.22    0.88
 -13  -5  -3    0.07    0.75
 -14  -5  -3    0.26    0.85
  14  -5   3   -1.22    0.94
 -15  -5  -3   -0.46    1.00
  15  -5   3   -2.35    0.98
 -16  -6   3    1.87    1.17
 -15  -6   3    1.24    1.06
  15  -6  -3    2.03    1.03
 -14  -6   3   -0.03    0.88
  14  -6  -3    0.54    0.91
  14   6  -3    1.15    0.71
  13  -6  -3   -0.15    0.88
 -13  -6   3    0.68    0.87
  13   6  -3    0.36    0.68
  12  -6  -3    1.14    0.79
 -12  -6   3    1.42    0.80
  12   6  -3    0.95    0.66
  11  -6  -3    5.27    1.00
 -11  -6   3    4.29    0.88
  11   6  -3    6.06    0.97
 -10  -6   3   10.43    1.12
  10  -6  -3    9.25    1.13
  10   6  -3   10.71    1.15
   9  -6  -3    1.56    0.70
  -9  -6   3    4.35    0.82
   9   6  -3    2.83    0.69
  -8  -6   3    0.25    0.50
   8  -6  -3   -0.09    0.53
   8   6  -3   -0.43    0.43
  -7  -6   3    1.53    0.56
   7  -6  -3    1.42    0.54
   7   6  -3    1.36    0.53
  -6  -6   3    5.06    0.64
   6   6  -3    3.39    0.58
   5  -6  -3    5.45    0.64
  -5  -6   3    5.67    0.60
   5   6  -3    5.44    0.65
  -4  -6   3    0.48    0.28
   4   6  -3    0.51    0.35
  -3  -6   3    0.20    0.23
   3  -6  -3    0.03    0.28
   3   6  -3    0.26    0.35
   2  -6  -3   21.37    0.90
  -2  -6   3   20.52    0.83
   2   6  -3   21.62    1.06
   1  -6  -3    3.97    0.45
   1  -6  -3    2.88    0.47
  -1  -6   3    3.42    0.33
   1   6  -3    4.42    0.60
   0  -6  -3    1.02    0.32
   0  -6   3    1.13    0.20
   0   6  -3    0.63    0.36
   0   6   3    1.73    0.33
  -1  -6  -3    2.70    0.41
  -1   6  -3    1.80    0.46
   1   6   3    1.86    0.33
  -2  -6  -3   13.94    0.73
   2   6   3   13.11    0.65
  -2   6  -3   13.53    0.92
  -3  -6  -3   12.85    0.77
  -3  -6  -3   13.28    0.73
  -3   6  -3   12.31    0.89
   3   6   3   11.95    0.63
  -4  -6  -3    8.37    0.71
   4  -6   3    7.54    0.73
  -4  -6  -3    7.91    0.62
   4   6   3    7.45    0.54
  -5  -6  -3    2.52    0.51
   5  -6   3    1.82    0.59
  -5  -6  -3    1.75    0.46
   5   6   3    2.26    0.39
  -6  -6  -3    0.28    0.37
   6  -6   3    0.75    0.55
  -6  -6  -3   -0.23    0.48
   6   6   3   -0.01    0.30
   7  -6   3   -0.45    0.49
  -7  -6  -3    0.12    0.41
  -8  -6  -3    0.89    0.58
   8  -6   3    0.43    0.64
  -9  -6  -3    6.99    0.92
   9  -6   3    6.57    0.98
 -10  -6  -3    2.15    0.76
  10  -6   3    1.38    0.73
  11  -6   3    1.88    0.82
 -11  -6  -3    1.83    0.73
  12  -6   3    1.59    0.95
 -12  -6  -3    1.07    0.88
 -13  -6  -3    0.93    0.92
  13  -6   3    0.18    0.90
  14  -6   3   -1.10    1.01
 -14  -6  -3    0.87    1.01
 -16  -7   3   -1.54    1.11
 -15  -7   3   -0.15    1.06
  15  -7  -3   -1.03    1.00
 -14  -7   3    1.76    1.09
  14  -7  -3    2.78    1.08
 -13  -7   3    7.14    1.26
  13  -7  -3    5.81    1.19
  13   7  -3    8.11    1.15
 -12  -7   3    2.05    0.94
  12  -7  -3    3.76    1.01
  12   7  -3    4.18    0.88
  11  -7  -3    2.74    0.91
 -11  -7   3    3.60    0.95
  11   7  -3    3.25    0.76
  10  -7  -3   -0.41    0.61
 -10  -7   3    0.07    0.59
  10   7  -3    0.01    0.52
  -9  -7   3    2.56    0.72
   9  -7  -3    2.05    0.73
   9   7  -3    2.95    0.71
   8  -7  -3    9.28    1.02
  -8  -7   3    9.37    0.98
   8   7  -3   11.05    1.09
  -7  -7   3    0.59    0.55
   7  -7  -3    0.94    0.62
   7   7  -3    0.53    0.45
  -6  -7   3    2.61    0.55
   6  -7  -3    1.94    0.62
   6   7  -3    1.55    0.53
   5  -7  -3   12.66    0.92
  -5  -7   3   11.41    0.84
   5   7  -3   12.65    0.93
   4  -7  -3    0.10    0.38
  -4  -7   3    0.47    0.30
   4   7  -3    0.07    0.38
  -3  -7   3    9.99    0.65
   3  -7  -3    9.85    0.68
   3   7  -3    9.98    0.77
  -2  -7   3   27.50    1.04
   2  -7  -3   29.69    1.15
   2   7  -3   27.71    1.28
  -1  -7   3    4.74    0.42
   1  -7  -3    5.60    0.68
   1   7  -3    5.04    0.69
   0  -7   3    4.62    0.38
   0  -7  -3    6.01    0.65
   0   7  -3    4.74    0.65
   0   7   3    4.98    0.53
  -1  -7  -3   89.08    2.56
   1   7   3   87.37    2.47
  -1   7  -3   88.10    2.77
  -2  -7  -3    4.40    0.52
   2   7   3    3.79    0.47
  -2   7  -3    3.97    0.65
  -3  -7  -3   11.29    0.78
  -3  -7  -3   12.15    0.74
  -3   7  -3   12.43    0.96
   3   7   3   11.85    0.67
  -4  -7  -3    1.36    0.40
   4  -7   3    0.68    0.46
  -4  -7  -3    0.81    0.40
   4   7   3    1.08    0.34
   5  -7   3    8.30    0.90
  -5  -7  -3    6.62    0.74
  -5  -7  -3    6.41    0.68
   5   7   3    7.16    0.63
   6  -7   3    3.36    0.69
  -6  -7  -3    2.59    0.54
   7  -7   3   -0.54    0.55
  -7  -7  -3    0.40    0.50
   8  -7   3    0.01    0.56
  -8  -7  -3    0.75    0.54
   9  -7   3   -0.43    0.65
  -9  -7  -3   -0.15    0.56
  10  -7   3    4.60    1.04
 -10  -7  -3    5.00    0.94
  11  -7   3    2.00    0.97
 -11  -7  -3    1.34    0.74
  12  -7   3    3.09    1.02
 -12  -7  -3    2.09    0.96
  13  -7   3   -0.79    0.95
 -13  -7  -3   -0.75    0.85
 -14  -7  -3   -0.34    0.96
  14  -7   3   -0.56    1.09
 -15  -8   3    1.59    1.12
  14  -8  -3   -0.88    0.88
 -14  -8   3   -0.69    0.89
  13  -8  -3   -0.12    1.00
 -13  -8   3   -0.63    0.85
  12  -8  -3    1.33    0.93
 -12  -8   3    2.16    0.96
  12   8  -3    1.68    0.71
  11  -8  -3    5.29    1.09
 -11  -8   3    6.11    1.11
  11   8  -3    6.08    0.98
  10  -8  -3   10.77    1.31
 -10  -8   3    7.95    1.03
  10   8  -3    9.56    1.10
   9  -8  -3    0.59    0.73
  -9  -8   3   -0.02    0.63
   9   8  -3    0.76    0.54
  -8  -8   3    0.20    0.53
   8  -8  -3    0.14    0.58
   8   8  -3    0.47    0.48
   7  -8  -3    0.59    0.57
  -7  -8   3    0.80    0.55
   7   8  -3    0.49    0.50
   6  -8  -3    2.73    0.62
  -6  -8   3    1.99    0.55
   6   8  -3    3.22    0.66
   5  -8  -3    3.45    0.64
  -5  -8   3    2.92    0.53
   5   8  -3    3.75    0.69
   4  -8  -3    9.20    0.81
  -4  -8   3    9.09    0.75
   4   8  -3    9.49    0.89
   3  -8  -3    1.11    0.44
  -3  -8   3    1.33    0.36
   3   8  -3    1.05    0.46
   2  -8  -3    4.25    0.59
  -2  -8   3    3.24    0.41
   2   8  -3    3.54    0.62
   1  -8  -3   22.42    1.17
  -1  -8   3   23.20    0.93
  -1   8   3   22.84    1.09
   1   8  -3   20.98    1.22
   0  -8  -3    4.16    0.61
   0  -8   3    5.09    0.43
   0   8   3    4.21    0.56
   0   8  -3    5.14    0.72
  -1  -8  -3    2.52    0.48
   1   8   3    3.20    0.50
  -1   8  -3    2.42    0.59
  -2  -8  -3    3.01    0.50
  -2  -8  -3    3.38    0.50
  -2   8  -3    2.93    0.64
   2   8   3    3.77    0.52
  -3  -8  -3   61.14    2.12
  -3  -8  -3   60.47    1.96
   3   8   3   60.91    1.95
  -3   8  -3   64.97    2.35
  -4  -8  -3   18.35    1.07
   4  -8   3   18.90    1.16
  -4  -8  -3   18.38    0.99
   4   8   3   18.55    1.07
  -5  -8  -3    5.71    0.70
   5  -8   3    6.14    0.84
  -6  -8  -3    0.16    0.39
   6  -8   3    0.55    0.54
  -7  -8  -3    4.31    0.76
   7  -8   3    4.95    0.84
  -8  -8  -3    1.15    0.62
   8  -8   3    0.40    0.61
  -9  -8  -3    1.63    0.74
   9  -8   3    3.37    0.92
 -10  -8  -3    0.79    0.66
  10  -8   3    2.37    0.94
  11  -8   3   -0.15    0.76
 -11  -8  -3   -0.17    0.70
 -12  -8  -3   -0.54    0.80
  12  -8   3   -0.39    0.82
  13  -8   3    0.50    0.92
 -13  -8  -3   -1.20    0.84
 -14  -8  -3   -1.46    0.89
 -15  -9   3   -1.56    1.12
  14  -9  -3   -0.44    0.94
 -14  -9   3   -0.50    1.06
  13  -9  -3    0.85    1.10
 -13  -9   3   -0.54    0.84
 -12  -9   3   -0.90    0.72
  12  -9  -3    0.40    0.89
 -11  -9   3   -0.73    0.74
  11  -9  -3   -0.69    0.74
  11   9  -3    0.21    0.54
  10  -9  -3    2.69    0.88
 -10  -9   3    2.34    0.91
  10   9  -3    4.05    0.88
  -9  -9   3    0.42    0.61
   9  -9  -3   -0.01    0.72
   9   9  -3    1.01    0.55
   8  -9  -3    1.70    0.70
  -8  -9   3    0.44    0.61
   8   9  -3    1.65    0.58
   7  -9  -3    1.58    0.67
  -7  -9   3    0.44    0.52
   7   9  -3    1.60    0.58
   6  -9  -3    1.64    0.62
  -6  -9   3    0.53    0.44
   6   9  -3    0.93    0.54
   5  -9  -3    1.72    0.60
  -5  -9   3    0.61    0.42
   5   9  -3    0.42    0.49
  -4  -9   3    0.07    0.36
   4  -9  -3   -0.02    0.42
   4   9  -3   -0.40    0.43
  -3  -9   3    5.40    0.61
   3  -9  -3    5.12    0.71
   3   9  -3    5.03    0.78
  -2  -9   3    0.39    0.29
   2  -9  -3   -0.71    0.36
   2   9  -3    0.53    0.51
  -1  -9   3    3.18    0.43
   1  -9  -3    3.27    0.56
   1  -9  -3    2.60    0.62
   1   9  -3    3.07    0.66
   0  -9  -3    2.85    0.57
   0  -9   3    2.61    0.38
   0   9  -3    2.97    0.70
   0   9   3    2.63    0.55
   1  -9   3   12.41    0.64
  -1  -9  -3   10.82    0.83
   1   9   3   11.20    0.80
  -1   9  -3   12.22    1.01
  -2  -9  -3    2.21    0.48
  -2  -9  -3    2.45    0.55
  -2   9  -3    2.68    0.68
   2   9   3    2.40    0.50
  -3  -9  -3    2.64    0.52
  -3  -9  -3    1.49    0.46
  -3   9  -3    3.92    0.84
   3   9   3    1.90    0.57
   4  -9   3   -0.10    0.51
  -4  -9  -3    0.05    0.42
  -4  -9  -3    0.36    0.40
  -5  -9  -3    2.30    0.56
   5  -9   3    1.86    0.64
  -6  -9  -3    5.17    0.78
   6  -9   3    4.11    0.79
  -7  -9  -3   -0.28    0.46
   7  -9   3   -0.33    0.59
  -8  -9  -3    0.92    0.61
   8  -9   3    0.70    0.66
  -9  -9  -3   -0.37    0.62
   9  -9   3   -0.97    0.58
  10  -9   3    0.11    0.73
 -10  -9  -3   -0.40    0.61
  11  -9   3    0.03    0.87
 -11  -9  -3    0.08    0.78
  12  -9   3    0.79    0.91
 -12  -9  -3    0.69    0.93
 -13  -9  -3   -0.35    0.96
 -14 -10   3   -0.51    0.89
  13 -10  -3   -0.32    0.98
 -13 -10   3    0.03    0.90
  12 -10  -3    0.18    0.91
 -12 -10   3    0.13    0.89
 -11 -10   3    7.89    1.28
  11 -10  -3   10.95    1.49
 -10 -10   3   11.05    1.34
  10 -10  -3   10.17    1.35
  10  10  -3   10.44    1.37
   9 -10  -3    8.91    1.19
  -9 -10   3    6.47    0.98
   9  10  -3    9.16    1.11
  -8 -10   3    0.41    0.63
   8 -10  -3    0.65    0.73
   8  10  -3    0.28    0.53
  -7 -10   3    2.65    0.65
   7 -10  -3    3.31    0.83
   7  10  -3    2.71    0.68
  -6 -10   3    8.19    0.86
   6 -10  -3   10.31    1.00
   6  10  -3   10.87    1.04
   5 -10  -3   11.65    1.05
  -5 -10   3   10.64    0.95
   5  10  -3    9.71    1.06
   4 -10  -3    5.75    0.81
  -4 -10   3    6.16    0.70
   4  10  -3    5.80    0.84
   3 -10  -3    2.20    0.60
  -3 -10   3    2.35    0.49
   3  10  -3    2.21    0.66
   2 -10  -3    5.98    0.75
  -2 -10   3    6.16    0.62
   2  10  -3    5.42    0.86
  -1 -10   3   15.15    0.85
   1 -10  -3   14.56    1.00
   1 -10  -3   14.68    1.08
   1  10  -3   14.55    1.19
   0 -10   3   28.43    1.17
   0 -10  -3   27.32    1.38
   0  10   3   27.61    1.35
   0  10  -3   28.28    1.54
  -1 -10  -3   15.42    1.00
  -1  10  -3   14.17    1.21
   1  10   3   14.99    0.98
  -2 -10  -3    0.90    0.42
  -2 -10  -3   -0.03    0.41
   2  10   3    0.29    0.61
  -3 -10  -3   21.76    1.16
  -3 -10  -3   21.66    1.28
  -3  10  -3   25.62    1.57
  -4 -10  -3   20.66    1.24
   4 -10   3   19.16    1.33
   5 -10   3    7.24    0.94
  -5 -10  -3    5.99    0.84
   6 -10   3   -0.15    0.59
  -6 -10  -3    0.11    0.48
   7 -10   3    3.83    0.83
  -7 -10  -3    3.49    0.79
  -8 -10  -3    5.71    0.95
   8 -10   3    7.17    1.08
   9 -10   3   10.39    1.32
  -9 -10  -3    8.84    1.11
  10 -10   3    1.21    0.93
 -10 -10  -3    1.21    0.71
  11 -10   3    0.39    0.84
 -11 -10  -3   -0.37    0.79
 -12 -10  -3   -0.77    0.85
 -13 -11   3   -1.46    0.84
 -12 -11   3   -1.92    0.72
  12 -11  -3    0.22    0.94
 -11 -11   3   -0.82    0.78
  11 -11  -3   -0.40    0.81
  10 -11  -3    0.11    0.88
 -10 -11   3    0.06    0.82
   9 -11  -3   -1.22    0.73
  -9 -11   3    0.22    0.69
   9  11  -3    0.88    0.85
   8 -11  -3    2.22    0.88
  -8 -11   3    1.63    0.71
   8  11  -3    3.20    0.75
   7 -11  -3    0.42    0.70
  -7 -11   3    0.31    0.59
   7  11  -3    0.93    0.59
  -6 -11   3    0.48    0.55
   6 -11  -3    0.33    0.62
   6  11  -3    0.15    0.48
   5 -11  -3    0.23    0.57
  -5 -11   3    0.35    0.45
   5  11  -3    0.38    0.53
  -4 -11   3    1.51    0.50
   4 -11  -3    1.30    0.55
   4  11  -3    1.73    0.62
  -3 -11   3    0.45    0.41
   3 -11  -3    1.25    0.51
   3  11  -3    0.81    0.55
   2 -11  -3    3.14    0.66
  -2 -11   3    3.32    0.52
   2  11  -3    4.38    0.86
   1 -11  -3    3.18    0.63
  -1 -11   3    1.80    0.65
   1 -11  -3    2.24    0.60
   1  11  -3    2.42    0.75
   0 -11  -3   -0.22    0.40
   0  11  -3   -0.47    0.46
   0  11   3   -0.16    0.44
  -1 -11  -3    2.20    0.57
  -1  11  -3    2.76    0.71
  -2 -11  -3   -0.24    0.37
  -2 -11  -3    0.20    0.40
  -2  11  -3   -0.14    0.58
  -3 -11  -3    0.32    0.44
  -3  11  -3   -0.51    0.57
   4 -11   3    0.12    0.52
  -4 -11  -3    0.44    0.44
   5 -11   3    0.63    0.61
  -5 -11  -3   -0.30    0.40
   6 -11   3    0.41    0.66
  -6 -11  -3    0.34    0.50
  -7 -11  -3    0.28    0.60
   7 -11   3    1.99    0.79
  -8 -11  -3   -0.59    0.60
   8 -11   3   -1.39    0.63
   9 -11   3    0.43    0.84
  -9 -11  -3    0.74    0.74
 -10 -11  -3   -0.92    0.63
  10 -11   3   -0.22    0.79
 -11 -11  -3   -0.32    0.71
  11 -11   3   -0.98    1.41
 -12 -11  -3   -1.19    0.76
 -12 -12   3   -1.94    0.88
 -11 -12   3    3.04    1.12
  11 -12  -3    3.65    1.25
 -10 -12   3    4.68    1.00
  10 -12  -3    7.94    1.35
  -9 -12   3    1.04    0.78
   9 -12  -3    1.13    0.83
  -8 -12   3   -0.92    0.62
   8 -12  -3    0.17    0.71
   7 -12  -3    0.49    0.65
  -7 -12   3    0.47    0.59
   7  12  -3    1.72    0.65
  -6 -12   3    3.00    0.73
   6 -12  -3    3.61    0.84
   6  12  -3    3.60    0.81
   5 -12  -3    4.56    0.90
  -5 -12   3    3.02    0.66
   5  12  -3    2.49    0.71
   4 -12  -3    5.05    0.84
  -4 -12   3    5.11    0.72
   4  12  -3    4.26    0.85
  -3 -12   3    0.27    0.41
   3 -12  -3    0.46    0.52
   3  12  -3    0.39    0.54
   2 -12  -3   17.12    1.26
   2 -12  -3   17.02    1.14
   2  12  -3   16.46    1.35
   1 -12  -3   62.32    2.26
   1 -12  -3   65.28    2.47
   1  12  -3   64.53    2.60
   0 -12  -3   43.06    1.91
   0  12  -3   45.78    2.15
  -1 -12  -3   11.96    0.94
  -1 -12  -3   10.04    0.93
  -1  12  -3   11.25    1.24
  -2 -12  -3   -0.15    0.39
  -2  12  -3   -0.30    0.62
  -3 -12  -3   13.07    1.12
   3 -12   3   12.82    1.18
  -4 -12  -3   22.51    1.43
   4 -12   3   18.22    1.35
  -5 -12  -3    5.58    0.85
   5 -12   3    7.04    1.02
  -6 -12  -3    0.32    0.56
   6 -12   3   -0.11    0.60
   7 -12   3    0.31    0.63
  -7 -12  -3    0.72    0.60
  -8 -12  -3    4.72    0.97
   8 -12   3    4.05    1.05
   9 -12   3    4.85    1.09
  -9 -12  -3    4.75    1.01
  10 -12   3    2.55    1.68
 -10 -12  -3    1.69    0.87
 -11 -12  -3   -0.71    0.79
 -11 -13   3   -1.47    0.77
  10 -13  -3   -0.76    0.89
 -10 -13   3   -0.31    0.74
  -9 -13   3    0.02    0.75
   9 -13  -3   -0.16    0.86
   8 -13  -3   -0.79    0.68
  -8 -13   3   -0.11    0.69
  -7 -13   3    0.24    0.64
   7 -13  -3   -0.06    0.68
  -6 -13   3   -0.63    0.52
   6 -13  -3    0.72    0.67
   6  13  -3    0.40    0.64
  -5 -13   3    0.04    0.50
   5 -13  -3   -0.30    0.56
   5  13  -3    0.92    0.64
   4 -13  -3    0.59    0.60
  -4 -13   3   -0.24    0.46
   4  13  -3    0.63    0.65
   3 -13  -3    1.97    0.68
   3  13  -3    0.63    0.60
   2 -13  -3    1.08    0.58
   2 -13  -3    2.90    0.74
   2  13  -3    1.62    0.72
   1 -13  -3    1.19    0.60
   1 -13  -3    1.91    0.68
   1  13  -3    0.43    0.59
   0 -13  -3    0.81    0.50
   0  13  -3    0.99    0.68
  -1 -13  -3    1.08    0.48
  -1  13  -3    0.06    0.60
  -2 -13  -3    0.95    0.52
  -2  13  -3    0.70    0.69
  -3 -13  -3    0.83    0.49
   3 -13   3    1.62    0.67
  -4 -13  -3    1.59    0.62
   4 -13   3    2.25    0.76
   5 -13   3   -0.16    0.59
  -5 -13  -3   -0.42    0.50
   6 -13   3    0.01    0.72
  -6 -13  -3    0.63    0.63
   7 -13   3    0.27    0.70
  -7 -13  -3   -0.56    0.60
   8 -13   3    0.59    0.84
  -8 -13  -3   -0.22    0.60
  -9 -13  -3   -0.65    0.64
 -10 -13  -3    0.21    0.75
 -10 -14   3    1.72    1.05
   9 -14  -3   -0.46    0.89
  -9 -14   3   -0.57    0.80
  -8 -14   3   -0.63    0.69
   8 -14  -3   -0.54    0.74
  -7 -14   3    0.27    0.66
   7 -14  -3    1.30    0.87
   6 -14  -3    4.41    1.03
  -6 -14   3    2.09    0.76
   5 -14  -3    6.88    1.15
   5  14  -3    7.25    1.16
   4 -14  -3    2.34    0.79
   4  14  -3    3.63    0.92
   3 -14  -3    6.02    0.95
   3 -14  -3    4.03    0.88
   3  14  -3    3.84    0.91
   2 -14  -3    7.96    1.07
   2  14  -3    7.34    1.17
   1 -14  -3   11.38    1.13
   1  14  -3   10.51    1.29
   0 -14  -3   10.60    1.37
   0 -14  -3   12.15    1.05
   0  14  -3   11.26    1.41
  -1 -14  -3    8.50    0.96
  -1  14  -3    7.96    1.27
  -2 -14  -3    0.70    0.52
  -2  14  -3    0.52    0.72
  -3 -14  -3    3.74    0.73
   3 -14   3    5.40    0.96
  -4 -14  -3    7.91    1.07
   4 -14   3    8.64    1.18
  -5 -14  -3    3.76    0.82
   5 -14   3    3.97    0.93
   6 -14   3    1.98    0.89
  -6 -14  -3    0.05    0.64
  -7 -14  -3   -0.37    0.65
   7 -14   3    1.11    0.90
  -8 -14  -3    3.38    0.95
  -8 -15   3   -0.87    0.76
   8 -15  -3   -0.06    0.90
   7 -15  -3    1.00    0.91
   6 -15  -3    2.80    0.94
   5 -15  -3    1.07    0.82
   4 -15  -3    3.32    0.73
   4 -15  -3    1.61    0.78
   4  15  -3    1.63    0.87
   3 -15  -3    2.85    0.69
   3  15  -3    0.03    0.70
   2 -15  -3    1.93    0.65
   2  15  -3   -0.18    0.60
   1 -15  -3    1.67    0.76
   1 -15  -3    1.76    0.79
   1  15  -3   -0.15    0.69
   0 -15  -3    0.96    0.45
   0  15  -3   -0.65    0.66
  -1 -15  -3    0.87    0.50
  -1  15  -3    0.50    0.73
   2 -15   3    2.53    0.77
  -2 -15  -3    0.39    0.51
   3 -15   3    1.72    0.75
  -3 -15  -3   -0.03    0.54
  -4 -15  -3    0.24    0.60
   4 -15   3    0.56    0.64
  -5 -15  -3    0.30    0.67
   5 -15   3    0.91    0.78
  -6 -15  -3    0.33    0.62
  -7 -15  -3   -0.24    0.64
   6 -16  -3   -0.75    0.76
   5 -16  -3    5.83    0.94
   4 -16  -3    3.40    0.79
   3 -16  -3    2.45    0.69
   2 -16  -3    2.59    0.86
   2  16  -3    0.04    0.74
   1  16  -3    0.99    0.87
   0  16  -3    0.05    0.81
  -1 -16  -3    0.53    0.52
  -1  16  -3    0.33    0.87
  -2 -16  -3    0.67    0.57
   2 -16   3    1.65    0.69
  -3 -16  -3    1.15    0.70
   3 -16   3    4.24    0.95
  -4 -16  -3    2.30    0.79
  -5 -16  -3    0.65    0.66
   3 -17  -3   11.87    2.11
   1  17  -3    0.15    0.89
   0  17  -3    0.58    0.81
  17   0  -4    0.17    0.99
  16   0  -4    1.82    1.01
  15   0  -4    5.31    1.17
  14   0  -4    0.58    0.80
  13   0  -4    0.84    0.73
  12   0  -4    4.85    0.92
  11   0  -4    0.90    0.78
  10   0  -4    3.76    0.88
   9   0  -4    1.62    0.62
   8   0  -4   24.05    1.29
   7   0  -4    7.65    0.77
   6   0  -4    2.72    0.50
   5   0  -4    0.30    0.34
   4   0  -4   45.98    1.43
   4   0  -4   43.87    1.27
   3   0  -4  104.91    2.55
   3   0  -4  101.97    2.63
   2   0  -4  424.01    9.69
   2   0  -4  428.04    9.69
   1   0  -4    7.84    0.40
   1   0  -4    8.02    0.43
   0   0  -4   87.71    2.15
   0   0  -4   88.85    2.28
  -1   0  -4  471.44   10.66
  -1   0  -4  471.98   10.86
  -2   0  -4  557.30   12.93
  -2   0  -4  560.48   12.69
   2   0   4  567.74   12.69
  -3   0  -4  112.57    2.80
  -3   0  -4  112.22    3.07
   3   0   4  113.42    2.80
  -4   0  -4   11.21    0.59
   4   0   4   11.25    0.58
  -4   0  -4   11.50    0.81
  -5   0  -4   86.85    2.65
   5   0   4   85.89    2.39
  -5   0  -4   89.64    2.40
  -6   0  -4   43.75    1.52
   6   0   4   45.03    1.53
  -6   0  -4   44.82    1.74
  -7   0  -4    1.39    0.46
   7   0   4    1.63    0.49
  -7   0  -4    0.96    0.60
  -8   0  -4    1.48    0.70
   8   0   4    1.83    0.58
  -8   0  -4    0.96    0.50
   9   0   4   14.01    1.08
  -9   0  -4   15.30    1.14
  -9   0  -4   12.93    1.25
  10   0   4    2.81    0.74
 -10   0  -4    3.29    0.88
 -10   0  -4    3.73    0.75
  11   0   4    1.36    0.71
 -11   0  -4    2.70    0.83
 -11   0  -4    1.58    0.73
 -12   0  -4   -0.84    0.73
 -12   0  -4    1.21    0.79
  17  -1  -4    1.63    1.08
  17   1  -4    1.26    1.00
  16  -1  -4    1.05    0.91
  16   1  -4    0.67    0.93
  15  -1  -4    3.67    1.01
  15   1  -4    3.53    1.00
  14  -1  -4    0.09    0.85
  14   1  -4   -0.05    0.84
  13  -1  -4    0.72    0.83
  13   1  -4    1.30    0.76
  12  -1  -4    0.07    0.68
  12   1  -4   -0.29    0.64
 -11  -1   4    0.82    0.71
  11  -1  -4    0.77    0.72
  11   1  -4   -0.08    0.71
  10  -1  -4    2.00    0.79
 -10  -1   4    1.98    0.81
  10   1  -4    1.27    0.68
   9  -1  -4    4.46    0.76
  -9  -1   4    6.31    0.88
   9   1  -4    4.18    0.76
   8  -1  -4    0.57    0.50
  -8  -1   4   -0.19    0.45
   8   1  -4    0.59    0.56
  -7  -1   4   13.64    0.99
   7  -1  -4   13.32    0.88
   7   1  -4   12.27    0.87
   6  -1  -4    7.49    0.65
  -6  -1   4    7.46    0.69
   6   1  -4    6.41    0.69
  -5  -1   4   33.25    1.29
   5  -1  -4   33.46    1.23
   5   1  -4   34.21    1.26
   5   1  -4   34.87    0.99
   4  -1  -4    5.92    0.52
   4   1  -4    6.46    0.53
   3  -1  -4    2.80    0.39
   3  -1  -4    1.96    0.30
   3   1  -4    1.76    0.37
   2  -1  -4   29.68    0.94
   2  -1  -4   29.43    0.90
   2   1  -4   29.21    0.97
   2   1  -4   30.07    0.90
   1  -1  -4  179.95    4.31
   1  -1  -4  181.57    4.16
   1   1  -4  181.11    4.29
   1   1  -4  180.52    4.29
   0  -1  -4  135.78    3.11
   0  -1  -4  131.99    3.32
   0   1  -4  139.55    3.31
   0   1  -4  135.70    3.37
  -1  -1  -4  159.34    3.92
  -1   1  -4  162.42    3.99
   1   1   4  155.99    3.63
  -1   1  -4  160.61    3.86
  -2  -1  -4   41.62    1.36
  -2  -1  -4   41.30    1.22
  -2   1  -4   40.00    1.43
   2   1   4   41.58    1.09
  -2   1  -4   44.18    1.14
  -3  -1  -4    4.65    0.39
  -3  -1  -4    5.51    0.58
   3  -1   4    4.67    0.40
   3   1   4    4.86    0.34
  -3   1  -4    5.18    0.36
  -3   1  -4    4.95    0.57
  -4  -1  -4    0.29    0.21
  -4  -1  -4    0.28    0.35
   4  -1   4    0.22    0.26
  -4   1  -4    0.70    0.39
  -4   1  -4    0.39    0.23
   4   1   4    0.36    0.25
  -5  -1  -4   76.54    2.21
   5  -1   4   80.06    2.24
  -5  -1  -4   79.34    2.41
  -5   1  -4   74.46    2.45
  -5   1  -4   78.23    2.15
   5   1   4   77.82    2.15
   6  -1   4   56.12    1.83
  -6  -1  -4   59.17    1.86
  -6  -1  -4   58.55    2.05
   6   1   4   59.00    1.79
  -6   1  -4   54.69    2.07
  -6   1  -4   57.79    1.80
  -7  -1  -4    2.42    0.51
   7  -1   4    3.34    0.60
  -7  -1  -4    2.85    0.67
  -7   1  -4    2.81    0.51
   7   1   4    3.42    0.56
  -7   1  -4    2.76    0.74
  -8  -1  -4    9.32    1.00
   8  -1   4    9.02    0.92
  -8  -1  -4    6.50    0.76
   8   1   4    8.63    0.83
  -8   1  -4    7.98    0.78
  -8   1  -4    9.14    1.12
  -9  -1  -4    0.07    0.65
  -9  -1  -4    0.20    0.52
   9  -1   4   -0.40    0.46
   9   1   4   -0.10    0.53
  -9   1  -4   -0.78    0.51
  -9   1  -4   -0.38    0.66
 -10  -1  -4   -0.12    0.58
 -10  -1  -4    0.07    0.64
  10  -1   4   -0.66    0.57
 -10   1  -4   -0.43    0.60
 -10   1  -4   -0.25    0.68
  10   1   4   -0.65    0.53
 -11  -1  -4    1.82    0.73
 -11  -1  -4    3.34    0.85
  11  -1   4    3.68    0.85
 -11   1  -4    3.21    0.84
 -11   1  -4    4.31    0.99
  12  -1   4    0.08    0.74
 -12  -1  -4   -0.48    0.73
 -12   1  -4    1.37    0.86
 -13  -1  -4   -0.34    0.82
  17  -2  -4   -0.09    0.90
  17   2  -4    3.53    1.09
  16  -2  -4   -1.25    0.90
  16   2  -4    0.58    0.85
  15  -2  -4    0.86    0.87
  15   2  -4    1.98    0.91
  14  -2  -4   15.14    1.47
 -14  -2   4   13.32    1.60
  14   2  -4   17.39    1.55
 -13  -2   4    0.56    0.91
  13  -2  -4    0.40    0.83
  13   2  -4    1.76    0.87
  12  -2  -4    1.25    0.76
 -12  -2   4    1.62    0.89
  12   2  -4    1.73    0.74
  11  -2  -4   -0.78    0.64
 -11  -2   4   -0.97    0.74
  11   2  -4    0.39    0.72
 -10  -2   4    9.25    1.04
  10  -2  -4   10.29    1.07
  10   2  -4   11.71    1.16
   9  -2  -4   26.09    1.37
  -9  -2   4   24.79    1.43
   9   2  -4   24.63    1.41
   8  -2  -4   26.47    1.28
  -8  -2   4   26.02    1.35
   8   2  -4   27.02    1.30
  -7  -2   4    2.55    0.53
   7  -2  -4    2.38    0.53
   7   2  -4    2.78    0.56
  -6  -2   4    1.04    0.39
   6   2  -4    0.62    0.39
   5  -2  -4    4.67    0.53
   5   2  -4    4.49    0.55
  -4  -2   4   21.71    0.90
   4  -2  -4   22.15    0.91
   4   2  -4   21.24    0.91
  -3  -2   4   21.63    0.84
   3  -2  -4   20.78    0.81
   3  -2  -4   20.47    0.83
   3   2  -4   20.35    0.84
   2  -2  -4    2.17    0.29
  -2  -2   4    1.83    0.28
   2  -2  -4    1.74    0.32
   2   2  -4    1.87    0.34
   2   2  -4    2.46    0.30
   1  -2  -4   14.71    0.64
   1  -2  -4   15.23    0.51
   1   2  -4   14.95    0.67
   1   2  -4   14.67    0.66
   0  -2  -4  106.99    2.44
   0  -2  -4  108.24    2.75
   0   2  -4  109.58    2.80
   0   2  -4  107.37    2.77
  -1  -2  -4    3.92    0.44
  -1   2  -4    3.17    0.45
  -1   2  -4    3.72    0.43
  -2  -2  -4   31.58    1.15
  -2   2  -4   32.82    1.15
  -2   2  -4   32.68    1.26
   2   2   4   32.72    0.84
   3  -2   4   35.66    1.19
  -3  -2  -4   34.16    1.16
  -3  -2  -4   35.80    1.27
  -3   2  -4   35.33    1.39
   3   2   4   33.02    0.98
  -3   2  -4   34.88    0.99
  -4  -2  -4    3.89    0.55
  -4  -2  -4    3.91    0.42
   4  -2   4    4.09    0.47
   4   2   4    4.11    0.39
  -4   2  -4    3.94    0.36
  -4   2  -4    5.21    0.67
  -5  -2  -4   75.55    2.23
   5  -2   4   77.58    2.26
  -5  -2  -4   76.77    2.35
   5   2   4   76.27    2.09
  -5   2  -4   76.01    2.10
  -5   2  -4   75.43    2.52
  -6  -2  -4    8.50    0.67
  -6  -2  -4    8.16    0.83
   6  -2   4    7.50    0.71
  -6   2  -4    7.31    0.67
  -6   2  -4    7.33    0.92
   6   2   4    8.43    0.65
   7  -2   4    4.17    0.61
  -7  -2  -4    3.28    0.57
  -7  -2  -4    3.96    0.72
  -7   2  -4    3.53    0.76
   7   2   4    3.41    0.56
  -7   2  -4    2.99    0.53
   8  -2   4    1.99    0.58
  -8   2  -4    1.16    0.76
  -8   2  -4    1.52    0.57
  -9  -2  -4    7.82    1.03
  -9  -2  -4    8.25    0.94
   9  -2   4   14.47    1.27
  -9   2  -4    8.53    0.90
   9   2   4    8.88    0.90
  -9   2  -4    7.69    1.07
 -10  -2  -4    7.79    1.04
 -10  -2  -4    7.19    0.96
  10  -2   4    9.13    1.06
 -10   2  -4   10.01    1.30
 -11  -2  -4    2.75    0.76
  11  -2   4    4.77    0.94
 -11   2  -4    3.89    0.94
  12  -2   4    0.44    0.68
 -12  -2  -4   -1.07    0.67
  13  -2   4    1.46    0.81
 -13  -2  -4    0.52    0.85
 -14  -2  -4   -0.47    0.87
 -15  -2  -4   -0.03    1.42
  17  -3  -4   -0.58    1.77
  17   3  -4    2.92    1.06
  16  -3  -4    1.09    1.10
  16   3  -4    2.29    1.00
  15  -3  -4   -0.69    0.81
 -15  -3   4    1.33    1.01
  15   3  -4   -0.36    0.76
  14  -3  -4    0.62    0.96
 -14  -3   4    1.19    1.04
  14   3  -4    0.52    0.85
  13  -3  -4    0.22    0.75
 -13  -3   4   -0.27    0.85
  13   3  -4    0.36    0.68
  12  -3  -4    2.67    0.83
 -12  -3   4    2.39    0.84
  12   3  -4    3.15    0.87
  11  -3  -4    1.76    0.77
 -11  -3   4    2.42    0.81
  11   3  -4    2.07    0.74
 -10  -3   4    0.31    0.73
  10  -3  -4    0.63    0.66
  10   3  -4    0.88    0.64
   9  -3  -4    3.44    0.74
  -9  -3   4    2.69    0.75
   9   3  -4    1.43    0.62
  -8  -3   4    5.11    0.76
   8  -3  -4    6.12    0.76
   8   3  -4    6.05    0.83
  -7  -3   4   61.17    2.03
   7  -3  -4   55.16    1.96
   7   3  -4   58.15    2.01
  -6  -3   4   12.93    0.83
   6  -3  -4   12.01    0.79
   6   3  -4   12.14    0.85
   5  -3  -4    0.88    0.36
  -4  -3   4    3.24    0.41
   4  -3  -4    2.90    0.41
   4   3  -4    2.27    0.43
   3  -3  -4  301.98    7.08
  -3  -3   4  302.03    7.07
   3   3  -4  305.99    7.23
  -2  -3   4    6.02    0.40
   2  -3  -4    6.48    0.40
   2  -3  -4    5.82    0.50
   2   3  -4    5.83    0.41
   2   3  -4    5.38    0.49
   1  -3  -4    9.62    0.41
   1  -3  -4    9.64    0.58
   1   3  -4    9.07    0.58
   1   3  -4    9.68    0.56
   0  -3  -4    2.45    0.34
   0  -3  -4    2.80    0.19
   0   3  -4    2.43    0.39
   0   3  -4    2.43    0.41
  -1  -3  -4    1.96    0.36
  -1   3  -4    1.37    0.33
  -1   3  -4    1.79    0.43
  -2  -3  -4    0.51    0.31
  -2   3  -4    0.05    0.26
   2   3   4    0.25    0.10
  -2   3  -4    0.52    0.35
  -3  -3  -4    0.02    0.30
  -3  -3  -4   -0.10    0.18
   3  -3   4   -0.39    0.25
   3   3   4    0.16    0.14
  -3   3  -4    0.07    0.33
  -4  -3  -4    2.11    0.36
   4  -3   4    2.12    0.41
  -4  -3  -4    2.39    0.48
   4   3   4    2.31    0.29
  -4   3  -4    1.84    0.51
   5  -3   4    2.20    0.45
  -5  -3  -4    2.14    0.40
  -5  -3  -4    2.61    0.54
   5   3   4    2.77    0.38
  -5   3  -4    2.19    0.58
  -6  -3  -4    1.67    0.43
   6  -3   4    0.97    0.44
  -6  -3  -4    2.03    0.58
  -6   3  -4    1.45    0.66
   6   3   4    1.28    0.37
  -7  -3  -4   14.33    0.99
  -7  -3  -4   13.18    1.09
   7  -3   4   15.16    0.97
   7   3   4   12.88    0.85
  -7   3  -4   12.50    1.21
   8  -3   4   19.49    1.16
  -8  -3  -4   19.41    1.30
  -8  -3  -4   18.32    1.19
  -8   3  -4   16.95    1.44
   8   3   4   18.03    1.05
  -9  -3  -4    4.05    0.82
  -9  -3  -4    3.03    0.66
   9  -3   4    3.37    0.78
  -9   3  -4    3.26    0.96
 -10  -3  -4    1.49    0.62
  10  -3   4    1.19    0.70
 -10   3  -4    1.29    0.81
 -11  -3  -4    1.88    0.77
  11  -3   4    1.44    0.84
 -12  -3  -4   -0.37    0.66
  12  -3   4    0.26    0.71
  13  -3   4    0.42    0.88
 -13  -3  -4    0.23    0.85
 -14  -3  -4    1.53    1.00
  14  -3   4    0.40    0.95
 -15  -3  -4   -2.39    0.94
 -17  -4   4    0.40    1.29
  17   4  -4    1.94    0.89
  16  -4  -4   -1.47    0.87
 -16  -4   4   -0.69    0.96
  16   4  -4    1.48    0.82
 -15  -4   4   -0.70    1.01
  15  -4  -4   -0.39    0.84
  15   4  -4    0.59    0.83
 -14  -4   4    3.07    1.02
  14  -4  -4    3.19    1.11
  14   4  -4    2.62    0.93
  13  -4  -4   -0.25    0.84
 -13  -4   4   -0.19    0.88
  13   4  -4   -0.07    0.73
  12  -4  -4    1.32    0.78
 -12  -4   4    1.59    0.80
  12   4  -4    1.87    0.79
 -11  -4   4    2.92    0.90
  11  -4  -4    1.06    0.75
  11   4  -4    1.52    0.75
  10  -4  -4   11.80    1.12
 -10  -4   4    8.97    1.06
  10   4  -4   13.06    1.12
   9  -4  -4   25.91    1.41
  -9  -4   4   26.43    1.47
   9   4  -4   23.31    1.36
  -8  -4   4   23.09    1.34
   8  -4  -4   20.70    1.21
   8   4  -4   19.41    1.23
   7  -4  -4    0.87    0.48
  -7  -4   4    0.23    0.40
   7   4  -4    0.22    0.46
  -6  -4   4    2.00    0.47
   6  -4  -4    1.77    0.52
   6   4  -4    1.09    0.41
   5  -4  -4   37.92    1.38
  -5  -4   4   37.10    1.37
  -4  -4   4   48.13    1.53
   4  -4  -4   48.20    1.53
   4   4  -4   49.08    1.65
   3  -4  -4  162.30    3.97
  -3  -4   4  162.04    3.96
   3   4  -4  158.48    4.12
  -2  -4   4   11.79    0.55
   2  -4  -4   12.19    0.57
   2  -4  -4   10.75    0.66
   2   4  -4   11.64    0.57
   2   4  -4   12.09    0.74
   1  -4  -4    4.05    0.31
   1  -4  -4    3.96    0.46
  -1  -4   4    4.53    0.31
   1   4  -4    4.20    0.45
   1   4  -4    4.38    0.51
   0  -4  -4   24.88    0.96
   0  -4  -4   24.82    0.73
   0   4  -4   24.12    1.00
   0   4  -4   24.97    1.07
  -1  -4  -4   19.65    0.82
  -1   4  -4   18.10    0.90
  -1   4  -4   18.39    0.95
   1   4   4   19.53    0.59
  -2  -4  -4    3.64    0.45
  -2   4  -4    3.53    0.54
   2   4   4    3.10    0.24
  -2   4  -4    3.12    0.49
  -3  -4  -4    0.98    0.28
  -3  -4  -4    1.32    0.38
  -3   4  -4    0.93    0.47
  -3   4  -4    1.14    0.41
  -4  -4  -4   18.55    0.92
  -4  -4  -4   17.06    0.93
   4  -4   4   18.00    0.93
   4   4   4   17.69    0.66
  -4   4  -4   19.00    1.13
  -5  -4  -4    8.67    0.83
   5  -4   4    9.57    0.80
  -5  -4  -4    9.25    0.73
  -5   4  -4    8.03    0.90
   5   4   4    9.51    0.56
   6  -4   4    9.79    0.82
  -6  -4  -4   10.63    0.86
  -6  -4  -4   11.75    0.98
  -6   4  -4    9.40    1.08
   6   4   4   10.99    0.68
  -7  -4  -4    0.23    0.40
   7  -4   4   -0.19    0.45
  -7  -4  -4    0.18    0.55
  -7   4  -4   -0.97    0.61
   7   4   4   -0.36    0.35
  -8  -4  -4    2.09    0.65
   8  -4   4    2.65    0.75
  -8  -4  -4    1.93    0.56
  -8   4  -4    3.82    0.87
   9  -4   4    3.94    0.79
  -9  -4  -4    4.76    0.79
  -9   4  -4    4.15    1.03
  10  -4   4   35.42    1.77
 -10  -4  -4   34.03    1.82
 -11  -4  -4    6.20    0.94
  11  -4   4    9.48    1.19
 -12  -4  -4    0.61    0.79
  12  -4   4    0.69    0.87
  13  -4   4   -0.58    0.75
 -13  -4  -4   -0.59    0.81
  14  -4   4    0.91    1.06
 -14  -4  -4    1.16    1.00
  15  -4   4    2.76    1.24
 -15  -4  -4    0.30    1.09
 -17  -5   4    0.98    1.18
  16  -5  -4   -0.10    1.04
 -16  -5   4   -0.18    1.17
  16   5  -4    1.95    0.88
 -15  -5   4    0.50    1.13
  15  -5  -4    0.04    0.90
  15   5  -4    1.46    0.89
 -14  -5   4   -0.97    0.82
  14  -5  -4    0.21    0.85
  14   5  -4    1.23    0.83
  13  -5  -4    3.17    0.98
 -13  -5   4    2.80    1.06
  13   5  -4    4.51    1.03
 -12  -5   4    1.98    0.93
  12  -5  -4    1.35    0.79
  12   5  -4    1.50    0.70
  11  -5  -4   21.38    1.46
 -11  -5   4   20.26    1.53
  11   5  -4   22.83    1.44
 -10  -5   4    5.41    0.95
  10  -5  -4    6.63    1.02
  10   5  -4    5.59    0.89
  -9  -5   4   -0.53    0.58
   9  -5  -4   -0.08    0.59
   9   5  -4    0.12    0.57
   8  -5  -4    7.50    0.89
  -8  -5   4    6.26    0.77
   8   5  -4    9.10    0.94
   7  -5  -4   22.08    1.16
  -7  -5   4   20.77    1.16
   7   5  -4   19.21    1.11
   6  -5  -4    8.66    0.74
  -6  -5   4    9.83    0.82
   6   5  -4    8.42    0.80
  -5  -5   4   18.56    0.95
   5  -5  -4   16.18    0.88
   5   5  -4   19.29    1.03
  -4  -5   4    6.22    0.57
   4  -5  -4    6.90    0.57
   4   5  -4    6.80    0.63
   3  -5  -4  165.08    4.21
  -3  -5   4  170.20    4.18
   3   5  -4  174.05    4.43
   2  -5  -4   52.45    1.71
  -2  -5   4   52.88    1.45
   2  -5  -4   47.30    1.47
   2   5  -4   49.23    1.70
   1  -5  -4    8.63    0.48
   1  -5  -4    9.46    0.65
  -1  -5   4    9.57    0.45
   1   5  -4    8.62    0.59
   1   5  -4    8.85    0.71
   0  -5  -4    9.01    0.45
   0  -5  -4    8.61    0.60
   0  -5   4    8.77    0.39
   0   5  -4    8.70    0.66
   0   5  -4    9.92    0.74
  -1  -5  -4    1.50    0.32
  -1   5  -4    1.24    0.41
   1   5   4    1.32    0.23
  -1   5  -4    1.92    0.43
  -2  -5  -4    8.04    0.59
   2   5   4    8.21    0.42
  -2   5  -4    7.47    0.68
  -2   5  -4    7.89    0.73
  -3  -5  -4   20.13    0.93
  -3  -5  -4   19.64    0.91
  -3   5  -4   21.32    1.10
   3   5   4   18.66    0.70
  -3   5  -4   20.23    1.16
   4  -5   4   16.96    0.98
  -4  -5  -4   18.77    0.96
  -4  -5  -4   19.29    0.99
   4   5   4   19.88    0.74
  -4   5  -4   18.18    1.18
  -5  -5  -4    0.74    0.36
  -5  -5  -4    1.36    0.51
   5  -5   4    0.75    0.46
   5   5   4    1.23    0.29
  -5   5  -4    0.90    0.58
  -6  -5  -4    0.81    0.54
   6  -5   4   -0.25    0.50
  -6  -5  -4    0.61    0.38
  -6   5  -4   -0.15    0.54
  -7  -5  -4   20.49    1.18
   7  -5   4   18.40    1.19
  -7  -5  -4   20.79    1.24
  -7   5  -4   19.93    1.52
  -8  -5  -4   26.97    1.43
   8  -5   4   25.86    1.51
   9  -5   4    0.48    0.60
  -9  -5  -4    1.11    0.61
 -10  -5  -4    0.93    0.68
  10  -5   4    1.19    0.80
  11  -5   4    2.47    0.96
 -11  -5  -4    3.09    0.78
  12  -5   4    1.31    0.88
 -12  -5  -4    2.08    0.91
  13  -5   4    1.00    1.02
 -13  -5  -4    0.23    0.85
 -14  -5  -4   -1.12    0.82
  14  -5   4   -1.74    0.86
 -16  -6   4    0.05    1.17
  15  -6  -4    1.27    1.01
 -15  -6   4    2.59    1.16
  15   6  -4    3.92    0.99
  14  -6  -4    5.98    1.28
 -14  -6   4    4.86    1.27
  14   6  -4    6.40    1.12
 -13  -6   4   -0.92    0.88
  13  -6  -4   -0.10    0.88
  13   6  -4    0.31    0.70
 -12  -6   4    3.17    0.98
  12  -6  -4    1.80    0.95
  12   6  -4    2.03    0.76
 -11  -6   4    7.39    1.03
  11  -6  -4    9.15    1.17
  11   6  -4   11.40    1.22
  10  -6  -4   11.84    1.24
 -10  -6   4   14.32    1.28
  10   6  -4   11.65    1.13
  -9  -6   4    6.44    0.88
   9  -6  -4    9.48    1.09
   9   6  -4   11.48    1.15
   8  -6  -4    1.85    0.70
  -8  -6   4    0.92    0.54
   8   6  -4    1.69    0.57
   7  -6  -4    3.15    0.69
  -7  -6   4    1.15    0.50
   7   6  -4    1.66    0.58
  -6  -6   4    3.50    0.55
   6  -6  -4    5.50    0.73
   6   6  -4    4.87    0.72
   5  -6  -4    3.63    0.58
  -5  -6   4    2.92    0.50
   5   6  -4    3.79    0.60
   4  -6  -4    1.82    0.44
  -4  -6   4    1.24    0.35
   4   6  -4    2.04    0.48
   3  -6  -4   15.63    0.79
  -3  -6   4   13.60    0.70
   3   6  -4   13.75    0.87
   2  -6  -4   23.93    1.13
  -2  -6   4   23.49    0.87
   2  -6  -4   23.40    0.93
   2   6  -4   23.05    1.12
  -1  -6   4    3.81    0.35
   1  -6  -4    3.66    0.50
   1  -6  -4    4.23    0.39
   1   6  -4    3.58    0.57
   0  -6  -4    2.01    0.38
   0  -6   4    2.13    0.22
   0   6   4    2.24    0.34
   0   6  -4    1.86    0.47
  -1  -6  -4    1.72    0.35
   1  -6   4    1.35    0.17
  -1   6  -4    1.45    0.49
   1   6   4    1.20    0.27
  -2  -6  -4   18.48    0.90
  -2   6  -4   19.43    1.08
   2   6   4   18.94    0.74
  -3  -6  -4   -0.37    0.27
  -3  -6  -4   -0.34    0.32
   3   6   4    0.04    0.20
  -3   6  -4    0.09    0.41
  -3   6  -4    0.82    0.46
  -4  -6  -4   32.77    1.40
  -4  -6  -4   33.24    1.30
   4  -6   4   31.19    1.41
   4   6   4   34.17    1.12
  -4   6  -4   33.47    1.64
   5  -6   4   13.33    0.96
  -5  -6  -4   13.95    0.96
  -5  -6  -4   14.81    0.99
  -6  -6  -4    5.94    0.76
   6  -6   4    4.82    0.76
  -6  -6  -4    5.93    0.68
  -7  -6  -4    1.41    0.50
   7  -6   4    0.11    0.61
   8  -6   4   11.94    1.21
  -8  -6  -4    8.33    0.93
   9  -6   4    1.29    0.70
  -9  -6  -4    2.84    0.69
 -10  -6  -4    2.52    0.72
  10  -6   4    4.05    0.91
 -11  -6  -4    2.75    0.88
  11  -6   4    3.85    0.96
  12  -6   4   -0.37    0.79
 -12  -6  -4    0.53    0.74
 -13  -6  -4   -0.32    0.91
  13  -6   4   -1.16    0.94
 -14  -6  -4    0.41    1.02
  14  -6   4   -0.77    0.96
 -16  -7   4    2.38    1.38
 -15  -7   4   -0.04    1.09
  15  -7  -4    0.33    1.00
 -14  -7   4   -1.19    0.86
  14  -7  -4    0.10    0.91
  14   7  -4    0.61    0.72
 -13  -7   4    2.11    0.98
  13  -7  -4    0.85    0.98
  13   7  -4    2.88    0.82
 -12  -7   4    3.99    1.01
  12  -7  -4    2.41    1.03
  12   7  -4    4.76    0.94
  11  -7  -4    2.29    0.86
 -11  -7   4    1.35    0.80
  11   7  -4    1.91    0.67
  10  -7  -4    1.24    0.80
 -10  -7   4    0.44    0.71
  10   7  -4    0.34    0.58
  -9  -7   4    0.28    0.63
   9  -7  -4   -0.44    0.58
   9   7  -4   -0.34    0.51
   8  -7  -4    1.24    0.63
  -8  -7   4    1.45    0.63
   8   7  -4    1.16    0.58
   7  -7  -4   14.76    1.07
  -7  -7   4   16.52    1.10
   7   7  -4   15.11    1.07
  -6  -7   4    7.00    0.76
   6  -7  -4    5.43    0.80
   6   7  -4    6.89    0.85
   5  -7  -4    2.22    0.51
  -5  -7   4    1.68    0.41
   5   7  -4    1.87    0.51
   4  -7  -4    4.06    0.59
  -4  -7   4    2.69    0.42
   4   7  -4    3.28    0.58
  -3  -7   4   17.24    0.82
   3  -7  -4   16.47    0.87
   3   7  -4   16.97    1.01
   2  -7  -4   22.27    0.97
   2  -7  -4   22.67    1.14
  -2  -7   4   22.73    0.90
   2   7  -4   21.97    1.16
   1  -7  -4    7.95    0.58
   1  -7  -4    7.79    0.71
  -1  -7   4    7.93    0.49
   1   7  -4    9.06    0.79
   0  -7   4    9.54    0.49
   0  -7  -4    9.76    0.74
   0   7   4    9.98    0.64
   0   7  -4    9.81    0.83
   1  -7   4   14.56    0.56
  -1  -7  -4   14.26    0.84
  -1   7  -4   14.10    0.98
   1   7   4   13.63    0.70
  -2  -7  -4   66.96    2.08
  -2   7  -4   64.56    2.32
   2   7   4   65.97    1.90
  -3  -7  -4   31.99    1.28
  -3  -7  -4   30.97    1.33
  -3   7  -4   31.01    1.51
   3   7   4   31.38    1.12
  -4  -7  -4   13.93    0.86
  -4  -7  -4   11.70    0.87
   4  -7   4   11.78    0.93
  -5  -7  -4    0.33    0.39
   5  -7   4   -0.68    0.47
  -5  -7  -4    0.46    0.48
   6  -7   4    6.15    0.84
  -6  -7  -4    4.40    0.65
  -7  -7  -4    1.07    0.52
   7  -7   4    0.22    0.55
  -8  -7  -4    0.39    0.50
   8  -7   4    0.20    0.60
  -9  -7  -4    0.69    0.58
   9  -7   4    0.36    0.73
  10  -7   4    0.25    0.78
 -10  -7  -4    0.47    0.64
 -11  -7  -4    1.97    0.85
  11  -7   4    2.97    0.99
  12  -7   4    1.76    1.02
 -12  -7  -4    0.57    0.76
  13  -7   4    1.49    1.06
 -13  -7  -4    1.12    0.96
 -14  -7  -4   -1.95    0.88
 -15  -8   4   -0.88    0.97
 -14  -8   4    1.34    1.04
  14  -8  -4    0.29    1.09
  13  -8  -4    1.36    0.97
 -13  -8   4    0.35    0.85
  13   8  -4    2.04    0.84
 -12  -8   4   -0.65    0.73
  12  -8  -4   -0.02    0.82
  12   8  -4    1.09    0.69
  11  -8  -4    2.99    1.05
 -11  -8   4    1.93    0.83
  11   8  -4    4.21    0.89
  10  -8  -4    1.33    0.76
 -10  -8   4    0.42    0.66
  10   8  -4    0.48    0.57
  -9  -8   4    2.05    0.69
   9  -8  -4    2.57    0.78
   9   8  -4    3.02    0.69
  -8  -8   4    0.90    0.59
   8  -8  -4    0.91    0.63
   8   8  -4    1.97    0.64
   7  -8  -4    0.34    0.56
  -7  -8   4   -0.09    0.52
   7   8  -4    0.12    0.50
   6  -8  -4    0.15    0.54
  -6  -8   4    0.44    0.40
   6   8  -4    0.06    0.48
  -5  -8   4    0.73    0.43
   5  -8  -4    0.18    0.43
   5   8  -4    0.34    0.50
   4  -8  -4    7.67    0.78
  -4  -8   4    8.02    0.71
   4   8  -4    8.69    0.96
   3  -8  -4    4.11    0.57
  -3  -8   4    3.39    0.45
   3   8  -4    3.94    0.67
   2  -8  -4   -0.46    0.41
   2  -8  -4   -0.03    0.35
  -2  -8   4    1.04    0.30
   2   8  -4   -0.27    0.45
   1  -8  -4   13.51    0.76
   1  -8  -4   11.95    0.86
  -1  -8   4   12.27    0.65
   1   8  -4   12.55    1.01
   0  -8   4   41.43    1.26
   0  -8  -4   42.32    1.61
   0   8  -4   36.71    1.69
   0   8   4   41.01    1.47
   1  -8   4    3.03    0.37
  -1  -8  -4    3.77    0.57
   1   8   4    3.83    0.49
  -1   8  -4    3.34    0.68
  -2  -8  -4    2.56    0.50
   2   8   4    2.02    0.42
  -2   8  -4    2.35    0.70
  -3  -8  -4    5.23    0.64
  -3  -8  -4    4.35    0.64
  -3   8  -4    4.01    0.77
  -4  -8  -4   10.99    0.88
  -4  -8  -4   11.87    0.91
   4  -8   4   10.63    0.94
  -5  -8  -4    9.03    0.89
  -5  -8  -4    9.51    0.91
   5  -8   4   11.26    1.13
   6  -8   4   -0.21    0.48
  -6  -8  -4    0.08    0.39
   7  -8   4    0.33    0.63
  -7  -8  -4    1.54    0.57
   8  -8   4   -0.08    0.58
  -8  -8  -4    0.05    0.49
  -9  -8  -4   -0.84    0.49
   9  -8   4    0.34    0.75
 -10  -8  -4    0.99    0.74
  10  -8   4    1.75    0.91
  11  -8   4    2.88    1.07
 -11  -8  -4    2.55    0.83
 -12  -8  -4   -0.08    0.80
  12  -8   4   -0.97    0.78
  13  -8   4   -1.25    0.95
 -13  -8  -4   -1.24    0.85
 -15  -9   4   -2.10    1.07
 -14  -9   4   -1.53    1.01
  14  -9  -4   -1.50    1.02
  13  -9  -4   -0.10    0.96
 -13  -9   4    0.25    1.03
  12  -9  -4    1.03    0.97
 -12  -9   4    2.33    1.01
  12   9  -4    3.06    0.83
  11  -9  -4    6.42    1.17
 -11  -9   4    5.52    1.15
  11   9  -4    7.78    1.09
 -10  -9   4    4.07    0.96
  10  -9  -4    4.74    1.07
  10   9  -4    5.07    0.93
   9  -9  -4    1.40    0.75
  -9  -9   4    0.79    0.71
   9   9  -4    1.30    0.57
  -8  -9   4    0.88    0.55
   8  -9  -4   -0.50    0.57
   8   9  -4    1.46    0.58
  -7  -9   4    2.71    0.66
   7  -9  -4    1.68    0.66
   7   9  -4    2.15    0.66
  -6  -9   4   15.86    1.14
   6  -9  -4   16.98    1.22
   6   9  -4   17.76    1.24
  -5  -9   4    5.50    0.69
   5  -9  -4    4.81    0.75
   5   9  -4    5.88    0.83
  -4  -9   4    4.59    0.59
   4  -9  -4    5.48    0.71
   4   9  -4    4.95    0.79
   3  -9  -4   23.09    1.16
  -3  -9   4   21.64    1.05
   3   9  -4   22.37    1.30
   2  -9  -4    9.76    0.78
   2  -9  -4    8.82    0.86
  -2  -9   4   10.24    0.71
   2   9  -4    8.80    0.98
   1  -9  -4    5.17    0.74
  -1  -9   4    4.91    0.48
   1  -9  -4    4.84    0.61
   1   9  -4    4.58    0.77
   0  -9  -4    3.89    0.64
   0  -9   4    3.01    0.47
   0   9   4    3.39    0.57
   0   9  -4    3.79    0.79
  -1  -9  -4    1.99    0.48
  -1   9  -4    2.57    0.73
   1   9   4    2.20    0.47
  -2  -9  -4   52.12    1.85
  -2  -9  -4   49.97    1.90
  -2   9  -4   49.33    2.13
  -3  -9  -4   47.67    1.77
  -3  -9  -4   52.03    1.95
  -3   9  -4   45.22    2.11
  -4  -9  -4   17.39    1.16
  -4  -9  -4   14.36    0.97
   4  -9   4   15.09    1.12
  -5  -9  -4    0.22    0.44
   5  -9   4    0.38    0.54
  -6  -9  -4    2.47    0.58
   6  -9   4    3.75    0.77
  -7  -9  -4    0.93    0.51
   7  -9   4    1.37    0.70
  -8  -9  -4   10.60    1.10
   8  -9   4   11.46    1.27
   9  -9   4    0.48    0.72
  -9  -9  -4    2.60    0.73
  10  -9   4    1.81    0.85
 -10  -9  -4    0.74    0.75
  11  -9   4    1.59    0.93
 -11  -9  -4    1.48    0.80
  12  -9   4   -0.12    0.97
 -12  -9  -4    1.38    0.99
 -13  -9  -4   -1.25    0.93
 -14 -10   4   -0.84    0.89
  13 -10  -4   -1.23    1.03
 -13 -10   4   -0.82    0.96
 -12 -10   4   -1.14    0.84
  12 -10  -4   -0.70    0.85
  11 -10  -4   -0.52    0.88
 -11 -10   4   -0.08    0.83
  11  10  -4    0.85    0.63
 -10 -10   4    1.03    0.73
  10 -10  -4   -0.50    0.70
  10  10  -4    0.77    0.62
  -9 -10   4    2.58    0.78
   9 -10  -4    2.77    0.86
   9  10  -4    3.30    0.80
   8 -10  -4    0.72    0.75
  -8 -10   4    0.11    0.58
   8  10  -4    0.08    0.54
  -7 -10   4    1.28    0.61
   7 -10  -4    0.53    0.66
   7  10  -4    0.83    0.57
   6 -10  -4    1.56    0.62
  -6 -10   4    0.84    0.53
   6  10  -4    2.10    0.67
  -5 -10   4    5.27    0.72
   5 -10  -4    6.08    0.89
   5  10  -4    5.08    0.82
   4 -10  -4    0.27    0.46
  -4 -10   4    0.30    0.38
   4  10  -4   -0.61    0.47
   3 -10  -4    6.24    0.79
  -3 -10   4    6.58    0.66
   3  10  -4    7.54    1.00
  -2 -10   4    3.30    0.50
   2 -10  -4    4.04    0.66
   2 -10  -4    3.98    0.72
   2  10  -4    4.12    0.80
  -1 -10   4   10.33    1.11
   1 -10  -4    9.74    0.80
   1 -10  -4   10.20    0.96
   1  10  -4   11.83    1.22
   0 -10  -4   20.02    1.19
   0  10  -4   20.19    1.35
   0  10   4   18.19    1.10
  -1 -10  -4    0.30    0.42
  -1  10  -4    0.23    0.63
  -2 -10  -4   -0.74    0.36
  -2 -10  -4   -0.27    0.39
  -2  10  -4    0.51    0.59
  -3 -10  -4    0.15    0.44
  -3 -10  -4    0.15    0.43
  -3  10  -4    0.35    0.59
   4 -10   4    0.41    0.53
  -4 -10  -4   -0.02    0.42
  -5 -10  -4    0.22    0.46
   5 -10   4    0.41    0.52
   6 -10   4    0.66    0.65
  -6 -10  -4    0.49    0.46
   7 -10   4    2.95    0.80
  -7 -10  -4    2.77    0.69
   8 -10   4    0.04    0.63
  -8 -10  -4   -0.90    0.48
  -9 -10  -4   -0.05    0.67
   9 -10   4   -0.20    0.67
  10 -10   4   -0.26    0.76
 -10 -10  -4   -1.17    0.56
  11 -10   4   -1.06    0.86
 -11 -10  -4   -0.46    0.78
 -12 -10  -4    0.25    0.92
 -13 -11   4    0.00    1.08
 -12 -11   4    2.72    1.14
  12 -11  -4    3.12    1.20
  11 -11  -4    7.64    1.32
 -11 -11   4    8.36    1.33
  10 -11  -4    1.09    0.95
 -10 -11   4    0.58    0.86
  10  11  -4    2.20    0.75
  -9 -11   4    1.64    0.82
   9 -11  -4    1.74    0.84
   9  11  -4    3.88    0.85
  -8 -11   4   13.42    1.25
   8 -11  -4   13.01    1.39
   8  11  -4   14.13    1.26
  -7 -11   4   24.72    1.54
   7 -11  -4   25.00    1.60
   7  11  -4   24.26    1.54
  -6 -11   4   12.85    1.10
   6 -11  -4   13.98    1.20
   6  11  -4   10.04    1.16
   5 -11  -4    6.77    0.88
  -5 -11   4    7.30    0.81
   5  11  -4    5.71    0.89
   4 -11  -4   -0.69    0.45
  -4 -11   4    0.34    0.41
   4  11  -4   -0.35    0.50
  -3 -11   4   12.18    0.91
   3 -11  -4   11.43    0.98
   3 -11  -4   12.43    1.11
   3  11  -4   14.24    1.17
   2 -11  -4   28.20    1.37
   2 -11  -4   29.65    1.58
   2  11  -4   29.09    1.62
   1 -11  -4    6.82    0.91
   1 -11  -4    6.83    0.78
   1  11  -4    6.22    0.96
   0 -11  -4    0.22    0.40
   0 -11  -4    0.95    0.62
   0  11  -4    0.60    0.56
  -1 -11  -4   -0.07    0.40
  -1  11  -4   -0.21    0.56
  -2 -11  -4   -0.25    0.40
  -2 -11  -4    0.45    0.43
  -2  11  -4   -0.31    0.59
  -3 -11  -4    6.19    0.77
  -3  11  -4    6.09    1.04
   4 -11   4    8.75    1.05
  -4 -11  -4    7.25    0.91
  -5 -11  -4    1.81    0.64
   5 -11   4    1.29    0.71
   6 -11   4    4.89    0.95
  -6 -11  -4    4.50    0.83
  -7 -11  -4    4.03    0.85
   7 -11   4    2.70    0.84
   8 -11   4   12.96    1.49
  -8 -11  -4   14.43    1.33
   9 -11   4    0.92    0.89
  -9 -11  -4    2.31    0.84
 -10 -11  -4    0.69    0.80
  10 -11   4    0.71    0.86
 -11 -11  -4   -0.90    0.75
 -12 -12   4   -0.91    0.92
  12 -12  -4    1.55    1.37
 -11 -12   4   -1.17    0.82
  11 -12  -4   -0.40    0.99
 -10 -12   4   -0.43    0.78
  10 -12  -4   -1.11    0.74
  -9 -12   4    0.43    0.73
   9 -12  -4   -0.89    0.76
   9  12  -4   -0.01    0.87
  -8 -12   4    0.47    0.71
   8 -12  -4    0.23    0.80
   8  12  -4    2.43    0.75
   7 -12  -4   -1.03    0.65
  -7 -12   4    0.36    0.63
   7  12  -4    0.31    0.63
  -6 -12   4   -0.18    0.52
   6 -12  -4    0.70    0.68
   6  12  -4    0.03    0.59
   5 -12  -4    1.57    0.72
  -5 -12   4    1.35    0.57
   5  12  -4    0.94    0.64
   4 -12  -4    0.19    0.54
  -4 -12   4    0.28    0.44
   4  12  -4    0.32    0.54
   3 -12  -4    0.18    0.56
   3 -12  -4    0.05    0.46
   3  12  -4    0.41    0.56
   2 -12  -4    0.89    0.52
   2 -12  -4    1.04    0.56
   2  12  -4    0.41    0.63
   1 -12  -4    0.49    0.48
   1  12  -4    1.47    0.64
   0 -12  -4    0.76    0.52
   0  12  -4    0.81    0.69
  -1 -12  -4    0.07    0.42
  -1 -12  -4    0.31    0.47
  -1  12  -4   -0.04    0.55
  -2 -12  -4    1.95    0.56
  -2  12  -4    0.73    0.71
  -3 -12  -4    1.11    0.54
  -3  12  -4    0.02    0.69
  -4 -12  -4    1.31    0.59
   4 -12   4    2.15    0.72
   5 -12   4    2.06    0.73
  -5 -12  -4    0.85    0.62
   6 -12   4    0.91    0.70
  -6 -12  -4    1.02    0.58
  -7 -12  -4   -0.22    0.59
   7 -12   4    0.24    0.66
   8 -12   4    1.64    0.89
  -8 -12  -4    0.34    0.62
   9 -12   4   -0.04    0.76
  -9 -12  -4    0.11    0.69
 -10 -12  -4   -0.79    0.74
 -11 -13   4    1.80    1.09
  11 -13  -4    0.67    1.13
  10 -13  -4   -0.70    0.91
 -10 -13   4    0.59    0.91
  -9 -13   4   -1.03    0.74
   9 -13  -4   -0.05    0.85
  -8 -13   4    3.15    0.92
   8 -13  -4    2.37    0.95
  -7 -13   4    3.13    0.84
   7 -13  -4    4.56    1.06
   7  13  -4    5.27    1.02
   6 -13  -4   10.17    1.25
  -6 -13   4    9.17    1.06
   6  13  -4   12.31    1.39
   5 -13  -4    3.61    0.84
  -5 -13   4    3.67    0.87
   5  13  -4    4.29    0.92
   4 -13  -4    1.37    0.66
   4 -13  -4    0.61    0.59
   4  13  -4    0.48    0.65
   3 -13  -4    4.37    0.79
   3 -13  -4    5.17    0.91
   3  13  -4    3.66    0.84
   2 -13  -4    6.52    1.01
   2  13  -4    6.04    1.03
   1 -13  -4    4.82    0.87
   1  13  -4    3.21    0.85
   0 -13  -4    3.77    0.75
   0  13  -4    3.66    0.89
  -1 -13  -4    0.68    0.44
  -1 -13  -4   -0.15    0.57
  -1  13  -4   -0.14    0.58
  -2 -13  -4    6.99    0.88
  -2  13  -4    6.48    1.10
   3 -13   4   15.57    1.26
  -3 -13  -4   14.51    1.24
   4 -13   4    2.29    0.76
  -4 -13  -4    2.27    0.69
   5 -13   4   -0.33    0.58
  -5 -13  -4    1.13    0.61
   6 -13   4    2.88    0.92
  -6 -13  -4    1.96    0.68
  -7 -13  -4    4.41    0.97
   7 -13   4    4.48    1.00
  -8 -13  -4    3.76    0.96
   8 -13   4    7.21    1.29
  -9 -13  -4    1.52    0.83
  10 -14  -4   -0.08    1.10
 -10 -14   4   -1.36    0.83
   9 -14  -4   -0.46    0.93
  -9 -14   4   -0.30    0.78
  -8 -14   4   -0.26    0.76
   8 -14  -4   -0.18    0.87
   7 -14  -4   -0.11    0.82
  -7 -14   4   -0.78    0.66
   6 -14  -4    0.67    0.70
   6  14  -4    0.84    0.70
   5 -14  -4    0.77    0.72
   5  14  -4    0.45    0.72
   4 -14  -4    1.52    0.74
   4 -14  -4    4.50    0.88
   4  14  -4    2.86    0.87
   3 -14  -4    2.04    0.68
   3  14  -4    0.43    0.63
   2 -14  -4    0.88    0.62
   2  14  -4   -0.61    0.65
   1 -14  -4    0.49    0.53
   1  14  -4   -0.13    0.64
   0 -14  -4    0.53    0.42
   0 -14  -4    0.89    0.62
   0  14  -4    0.66    0.78
  -1 -14  -4    1.40    0.51
  -1  14  -4    0.01    0.70
  -2 -14  -4    0.54    0.46
  -2  14  -4   -0.07    0.66
   3 -14   4    1.79    0.74
  -3 -14  -4    0.93    0.59
   4 -14   4    1.08    0.77
  -4 -14  -4    0.87    0.59
  -5 -14  -4   -0.02    0.50
   5 -14   4    3.73    0.91
   6 -14   4    1.14    0.83
  -6 -14  -4   -0.67    0.58
  -7 -14  -4   -0.70    0.65
   7 -14   4   -0.46    1.07
  -8 -14  -4   -0.96    0.70
   8 -15  -4   -0.81    0.91
   7 -15  -4    2.15    0.97
   6 -15  -4    5.50    1.15
   5 -15  -4    2.44    0.68
   5  15  -4    1.10    0.76
   4 -15  -4    6.97    1.02
   4  15  -4    2.24    0.90
   3 -15  -4    4.97    0.93
   3  15  -4    3.83    1.04
   2 -15  -4    2.65    0.78
   2  15  -4    2.13    0.84
   1 -15  -4    1.98    0.70
   1  15  -4    0.77    0.73
   0 -15  -4    1.05    0.50
   0  15  -4    0.21    0.79
  -1 -15  -4    0.45    0.48
  -1  15  -4    0.04    0.71
   2 -15   4    4.61    0.88
  -2 -15  -4    2.90    0.73
  -2  15  -4    1.88    0.90
  -3 -15  -4    5.65    0.94
   3 -15   4    7.24    1.19
  -4 -15  -4    0.63    0.62
   4 -15   4    2.00    0.79
   5 -15   4    0.58    0.73
  -5 -15  -4    0.10    0.60
  -6 -15  -4    0.53    0.71
   5 -16  -4    4.55    0.88
   4 -16  -4    3.08    0.79
   4  16  -4   -0.38    0.94
   3 -16  -4    2.04    0.69
   3  16  -4    0.29    0.81
   2 -16  -4    1.45    0.67
   2  16  -4    0.78    0.80
   1  16  -4   -0.33    0.74
   0 -16  -4    0.95    0.53
   0  16  -4    1.79    0.90
  -1 -16  -4    2.41    0.68
  -1  16  -4    1.67    0.97
   2 -16   4    3.66    0.90
  -3 -16  -4    0.71    0.61
   3 -16   4    2.13    1.27
  -4 -16  -4    1.23    0.70
   1  17  -4    1.93    1.16
  17   0  -5    0.57    0.98
  16   0  -5   -1.34    0.72
  15   0  -5    0.39    0.82
  14   0  -5    0.24    0.85
  13   0  -5    0.46    0.71
  12   0  -5    0.39    0.70
  11   0  -5   -0.49    0.66
  10   0  -5   -0.49    0.66
   9   0  -5    0.34    0.56
   8   0  -5   -0.11    0.50
   7   0  -5    0.37    0.42
   6   0  -5   -0.17    0.35
   6   0  -5    0.04    0.21
   5   0  -5   -0.02    0.33
   5   0  -5   -0.18    0.18
   4   0  -5    0.09    0.31
   4   0  -5    0.01    0.17
   3   0  -5    0.10    0.19
   3   0  -5    0.03    0.28
   2   0  -5   -0.26    0.23
   2   0  -5   -0.03    0.20
   1   0  -5   -0.14    0.19
   1   0  -5    0.19    0.26
   0   0  -5    0.24    0.33
   0   0  -5   -0.07    0.18
  -1   0  -5    0.17    0.31
  -1   0  -5   -0.17    0.17
  -2   0  -5   -0.29    0.35
  -2   0  -5   -0.07    0.15
   2   0   5   -0.12    0.17
  -3   0  -5    0.08    0.35
  -3   0  -5    0.05    0.17
   3   0   5   -0.23    0.17
  -4   0  -5   -0.30    0.20
  -4   0  -5   -0.16    0.38
   4   0   5   -0.40    0.23
   5   0   5    0.07    0.28
  -5   0  -5    0.27    0.49
  -5   0  -5    0.04    0.25
  -6   0  -5    0.05    0.56
  -6   0  -5    0.05    0.32
   6   0   5   -0.34    0.34
  -7   0  -5    0.22    0.40
   7   0   5   -0.01    0.44
  -7   0  -5   -0.25    0.52
  -8   0  -5    0.33    0.68
   8   0   5   -0.14    0.51
  -8   0  -5    0.58    0.48
  -9   0  -5   -0.03    0.61
  -9   0  -5    0.10    0.52
   9   0   5   -0.51    0.51
 -10   0  -5   -1.04    0.54
  10   0   5   -1.07    0.49
 -10   0  -5    0.01    0.72
 -11   0  -5   -1.22    0.62
 -11   0  -5    0.29    0.72
 -12   0  -5    1.35    0.85
  17  -1  -5    0.38    1.03
  17   1  -5    1.78    1.04
  16  -1  -5    3.10    1.16
  16   1  -5    2.75    0.98
  15  -1  -5    6.34    1.23
  15   1  -5    8.24    1.33
  14  -1  -5    0.62    0.90
  14   1  -5    1.25    0.80
  13  -1  -5    0.10    0.72
  13   1  -5    1.32    0.77
  12  -1  -5    0.80    0.74
  12   1  -5    0.12    0.74
  11  -1  -5    4.22    0.88
  11   1  -5    3.85    0.86
  10  -1  -5   14.86    1.28
  10   1  -5   11.88    1.13
   9  -1  -5    6.24    0.90
   9   1  -5    5.79    0.83
   8  -1  -5    5.73    0.75
   8   1  -5    4.96    0.73
   7  -1  -5   38.89    1.50
   7   1  -5   36.26    1.48
   6  -1  -5   24.25    1.13
   6   1  -5   23.07    1.10
   6   1  -5   24.15    0.82
   5  -1  -5   47.76    1.44
   5  -1  -5   44.93    1.49
   5   1  -5   42.92    1.49
   5   1  -5   44.44    1.26
   4  -1  -5   14.51    0.77
   4  -1  -5   15.22    0.69
   4   1  -5   15.88    0.59
   4   1  -5   15.37    0.79
   3  -1  -5   55.56    1.61
   3  -1  -5   57.23    1.61
   3   1  -5   57.24    1.66
   3   1  -5   56.65    1.53
   2  -1  -5   32.62    1.05
   2  -1  -5   30.28    0.95
   2   1  -5   32.33    1.02
   2   1  -5   31.58    1.06
   1  -1  -5    2.18    0.33
   1  -1  -5    1.75    0.23
   1   1  -5    1.44    0.33
   1   1  -5    1.21    0.30
   0  -1  -5    0.10    0.14
   0  -1  -5    0.61    0.29
   0   1  -5   -0.12    0.21
   0   1  -5    0.06    0.29
  -1  -1  -5   19.60    0.87
  -1  -1  -5   19.49    0.59
  -1   1  -5   19.59    0.90
  -1   1  -5   20.58    0.78
  -2  -1  -5    1.32    0.41
  -2   1  -5    0.99    0.43
  -2   1  -5    0.53    0.14
   2   1   5    0.70    0.16
  -2   1  -5    0.58    0.27
  -3  -1  -5    0.57    0.21
  -3  -1  -5    0.75    0.40
   3  -1   5    0.10    0.26
  -3   1  -5    0.43    0.18
  -3   1  -5    0.59    0.39
   3   1   5    0.62    0.20
   4  -1   5   94.52    2.51
  -4  -1  -5   93.07    2.50
  -4  -1  -5   91.02    2.71
   4   1   5   91.45    2.39
  -4   1  -5   93.12    2.40
  -4   1  -5   92.06    2.80
   5  -1   5    1.16    0.38
  -5  -1  -5    1.49    0.56
  -5  -1  -5    1.06    0.33
  -5   1  -5    0.78    0.51
  -5   1  -5    0.74    0.28
   5   1   5    1.26    0.34
  -6  -1  -5    0.60    0.35
  -6  -1  -5   -0.15    0.54
   6  -1   5   -0.01    0.36
   6   1   5    0.29    0.37
  -6   1  -5    0.52    0.35
  -6   1  -5    0.56    0.54
  -7  -1  -5    1.09    0.41
  -7  -1  -5    1.70    0.66
   7  -1   5    2.08    0.53
  -7   1  -5    1.57    0.71
   7   1   5    1.42    0.48
  -7   1  -5    1.09    0.45
   8  -1   5   10.42    0.98
  -8  -1  -5    9.07    1.02
  -8  -1  -5    7.36    0.79
  -8   1  -5    8.93    1.13
   8   1   5    8.22    0.84
  -8   1  -5    9.04    0.82
   9  -1   5   12.87    1.08
  -9  -1  -5   12.55    1.16
  -9  -1  -5   12.99    1.26
  -9   1  -5   14.06    1.42
   9   1   5   12.38    1.00
  -9   1  -5   11.03    1.00
 -10  -1  -5    3.60    0.74
  10  -1   5    4.67    0.84
 -10  -1  -5    4.25    0.91
 -10   1  -5    5.37    1.06
 -10   1  -5    4.07    0.94
 -11  -1  -5   -0.47    0.63
 -11  -1  -5    0.00    0.73
  11  -1   5   -0.24    0.62
 -11   1  -5    0.87    0.80
 -12  -1  -5    1.95    0.86
 -12   1  -5    3.16    1.01
 -13   1  -5    2.26    1.20
  17  -2  -5    0.51    1.04
  17   2  -5    1.86    1.03
  16  -2  -5    0.05    0.90
  16   2  -5    1.17    0.83
  15  -2  -5    0.24    0.85
  15   2  -5    0.01    0.73
  14  -2  -5    2.68    0.94
  14   2  -5    1.96    0.83
  13  -2  -5    1.54    0.88
 -13  -2   5    0.81    0.81
  13   2  -5    1.08    0.73
 -12  -2   5    0.74    0.85
  12  -2  -5   -0.11    0.69
  12   2  -5    0.48    0.69
 -11  -2   5   -0.12    0.69
  11  -2  -5    0.97    0.74
  11   2  -5   -0.04    0.63
  10  -2  -5    1.03    0.70
 -10  -2   5    1.17    0.74
  10   2  -5    0.70    0.69
  -9  -2   5    6.49    0.91
   9  -2  -5    6.19    0.90
   9   2  -5    6.09    0.89
  -8  -2   5   30.81    1.47
   8  -2  -5   27.29    1.35
   8   2  -5   30.40    0.96
   8   2  -5   30.69    1.41
  -7  -2   5   21.96    1.22
   7  -2  -5   25.85    1.17
   7   2  -5   21.98    0.74
   7   2  -5   23.34    1.16
   6  -2  -5    4.16    0.61
   6   2  -5    5.85    0.65
  -5  -2   5    2.95    0.47
   5  -2  -5    4.00    0.51
   5   2  -5    2.85    0.46
   4  -2  -5    2.13    0.39
   4  -2  -5    2.36    0.39
  -4  -2   5    2.67    0.40
   4   2  -5    2.90    0.44
   4   2  -5    2.06    0.41
   3  -2  -5   43.63    1.30
   3  -2  -5   41.14    1.35
   3   2  -5   42.73    1.21
   3   2  -5   43.30    1.39
   2  -2  -5   90.76    2.43
   2  -2  -5   91.55    2.27
   2   2  -5   91.07    2.44
   2   2  -5   90.19    2.34
   1  -2  -5    0.98    0.28
   1  -2  -5    0.47    0.18
   1   2  -5    0.41    0.28
   1   2  -5    0.13    0.24
   0  -2  -5   19.49    0.51
   0  -2  -5   20.56    0.84
   0   2  -5   19.30    0.83
   0   2  -5   19.91    0.91
  -1  -2  -5    6.27    0.58
  -1   2  -5    6.40    0.52
  -1   2  -5    6.53    0.65
  -2  -2  -5    6.05    0.60
  -2   2  -5    5.37    0.52
   2   2   5    5.00    0.25
  -2   2  -5    4.83    0.60
  -3  -2  -5   11.29    0.75
   3  -2   5   12.10    0.64
  -3  -2  -5   11.43    0.63
  -3   2  -5   11.56    0.49
   3   2   5   11.34    0.47
  -3   2  -5    9.57    0.79
  -4  -2  -5    5.60    0.66
   4  -2   5    5.77    0.58
  -4  -2  -5    5.25    0.50
   4   2   5    5.83    0.42
  -4   2  -5    6.85    0.47
  -4   2  -5    4.47    0.67
   5  -2   5    0.54    0.35
  -5   2  -5    0.66    0.28
  -5   2  -5    0.07    0.53
   5   2   5    0.18    0.27
  -6  -2  -5   14.74    1.11
   6  -2   5   15.83    0.95
  -6  -2  -5   16.35    0.93
  -6   2  -5   15.60    0.87
   6   2   5   15.35    0.82
  -6   2  -5   14.07    1.21
  -7  -2  -5    5.19    0.80
  -7  -2  -5    4.98    0.63
   7  -2   5    5.46    0.74
   7   2   5    4.99    0.62
  -7   2  -5    4.72    0.60
  -7   2  -5    4.76    0.92
   8  -2   5    0.25    0.54
  -8  -2  -5   -0.06    0.65
  -8  -2  -5    0.56    0.49
   8   2   5    0.51    0.47
  -8   2  -5    0.03    0.62
  -8   2  -5    0.37    0.50
  -9  -2  -5    0.47    0.69
   9  -2   5    0.53    0.58
  -9  -2  -5   -0.09    0.51
  -9   2  -5    0.04    0.67
 -10  -2  -5    0.45    0.70
  10  -2   5    0.03    0.63
 -10  -2  -5   -0.59    0.55
 -10   2  -5    0.82    0.81
 -11  -2  -5   -0.32    0.67
  11  -2   5    0.07    0.68
 -11   2  -5    0.72    0.74
 -12  -2  -5   -0.61    0.67
  12  -2   5   -1.05    0.71
 -12   2  -5    0.44    0.81
 -13  -2  -5   -0.87    0.81
  17  -3  -5   -0.35    1.25
  17   3  -5    1.85    1.00
  16  -3  -5    0.39    0.91
  16   3  -5    2.54    1.03
 -15  -3   5    2.50    1.10
  15  -3  -5    3.51    1.15
  15   3  -5    3.00    1.01
  14  -3  -5   -0.41    0.89
 -14  -3   5   -0.70    0.84
  14   3  -5   -0.97    0.68
  13  -3  -5    0.58    0.81
 -13  -3   5    1.00    0.85
  13   3  -5    1.04    0.85
  12  -3  -5    0.69    0.75
 -12  -3   5    1.35    0.82
  12   3  -5    1.89    0.81
  11  -3  -5    8.40    1.14
 -11  -3   5    6.32    1.01
  11   3  -5    7.54    1.04
  10  -3  -5   11.82    1.13
 -10  -3   5   12.90    1.24
  10   3  -5   11.42    1.16
  -9  -3   5   15.31    1.21
   9  -3  -5   13.21    1.07
   9   3  -5   11.94    1.06
   8  -3  -5   -0.10    0.46
  -8  -3   5   -0.24    0.53
   8   3  -5    0.10    0.51
  -7  -3   5   31.26    1.45
   7  -3  -5   29.99    1.32
   7   3  -5   31.53    1.38
   6  -3  -5   56.22    1.85
  -6  -3   5   53.74    1.85
   6   3  -5   57.15    1.90
   5  -3  -5    1.87    0.41
  -5  -3   5    1.48    0.38
   5   3  -5    1.81    0.44
  -4  -3   5   98.54    2.63
   4  -3  -5   98.78    2.60
   4  -3  -5   97.34    2.70
   4   3  -5   92.71    2.69
   3  -3  -5    9.06    0.61
  -3  -3   5   10.44    0.61
   3  -3  -5   10.41    0.57
   3   3  -5    9.56    0.50
   3   3  -5    8.81    0.63
   2  -3  -5    7.81    0.46
  -2  -3   5    7.80    0.49
   2  -3  -5    8.19    0.55
   2   3  -5    7.43    0.60
   2   3  -5    7.04    0.49
   1  -3  -5   19.84    0.85
   1  -3  -5   21.40    0.66
   1   3  -5   21.22    0.92
   1   3  -5   20.02    0.87
   0  -3  -5   26.61    1.02
   0  -3  -5   26.22    0.67
   0   3  -5   27.50    1.08
   0   3  -5   24.73    1.07
  -1  -3  -5    1.51    0.37
  -1   3  -5    1.41    0.35
  -1   3  -5    1.34    0.39
  -2  -3  -5    1.35    0.39
  -2   3  -5    1.13    0.35
  -2   3  -5    1.82    0.48
  -3  -3  -5    2.15    0.36
   3  -3   5    1.69    0.41
  -3  -3  -5    2.12    0.45
  -3   3  -5    1.67    0.49
   3   3   5    2.30    0.21
  -4  -3  -5   19.11    0.99
  -4  -3  -5   17.56    0.90
   4  -3   5   18.48    0.91
  -4   3  -5   18.87    0.72
   4   3   5   19.28    0.68
  -4   3  -5   18.83    1.13
  -5  -3  -5   15.84    0.88
  -5  -3  -5   16.16    1.04
   5  -3   5   15.91    0.92
   5   3   5   15.05    0.71
  -5   3  -5   16.02    0.77
  -5   3  -5   15.99    1.20
  -6  -3  -5    0.15    0.54
  -6  -3  -5    0.81    0.39
   6  -3   5    0.74    0.49
  -6   3  -5    0.57    0.64
  -6   3  -5    0.82    0.38
   6   3   5    0.53    0.36
   7  -3   5    0.33    0.52
  -7  -3  -5    1.28    0.50
  -7  -3  -5    0.06    0.61
  -7   3  -5    1.07    0.68
   8  -3   5    5.44    0.82
  -8  -3  -5    5.75    0.91
  -8  -3  -5    4.36    0.71
  -8   3  -5    5.27    0.96
   9  -3   5    9.94    1.08
  -9  -3  -5    8.73    1.07
  -9  -3  -5    8.38    0.96
  -9   3  -5    8.96    1.20
 -10  -3  -5    1.11    0.67
  10  -3   5    0.49    0.67
 -10   3  -5    0.66    0.82
 -11  -3  -5   -0.52    0.65
  11  -3   5   -0.04    0.73
 -11   3  -5    1.02    0.89
  12  -3   5    0.26    0.83
 -12  -3  -5   -0.62    0.70
  13  -3   5    1.21    0.92
 -13  -3  -5    0.02    0.80
 -14  -3  -5    0.45    0.97
  17   4  -5    2.39    0.99
  16  -4  -5    0.61    1.10
 -16  -4   5    0.98    1.14
  16   4  -5    1.19    0.81
 -15  -4   5   -0.44    1.01
  15  -4  -5   -0.97    0.81
  15   4  -5    0.18    0.83
  14  -4  -5   -0.04    0.96
 -14  -4   5   -0.29    1.01
  14   4  -5    0.92    0.75
 -13  -4   5   -0.92    0.75
  13  -4  -5    0.30    0.76
  13   4  -5    0.49    0.66
 -12  -4   5   -1.15    0.67
  12  -4  -5   -0.08    0.71
  12   4  -5   -0.44    0.66
  11  -4  -5   -0.35    0.65
 -11  -4   5   -0.24    0.69
  11   4  -5   -0.09    0.68
  10  -4  -5    2.89    0.80
 -10  -4   5    3.18    0.81
  10   4  -5    4.26    0.84
   9  -4  -5   13.64    1.20
  -9  -4   5   14.76    1.23
   9   4  -5   12.80    1.10
   8  -4  -5   28.86    1.41
  -8  -4   5   29.37    1.47
   8   4  -5   30.77    1.46
   7  -4  -5    4.72    0.70
  -7  -4   5    3.78    0.65
   7   4  -5    2.97    0.58
   6  -4  -5   46.22    1.67
  -6  -4   5   45.78    1.67
   6   4  -5   52.27    1.80
  -5  -4   5    3.35    0.46
   5  -4  -5    4.60    0.56
   5   4  -5    5.68    0.66
  -4  -4   5   54.85    1.67
   4  -4  -5   54.64    1.68
   4   4  -5   52.55    1.78
  -3  -4   5   11.42    0.60
   3  -4  -5   10.18    0.70
   3  -4  -5   10.04    0.59
   3   4  -5   10.54    0.53
   3   4  -5    8.72    0.66
   2  -4  -5    3.59    0.36
   2  -4  -5    3.64    0.48
  -2  -4   5    3.79    0.34
   2   4  -5    4.31    0.44
   2   4  -5    3.53    0.49
   1  -4  -5    0.13    0.24
   1  -4  -5    0.10    0.17
  -1  -4   5    0.20    0.20
   1   4  -5   -0.17    0.27
   1   4  -5   -0.18    0.28
   0  -4  -5    9.99    0.37
   0  -4  -5    9.95    0.62
   0   4  -5    9.85    0.71
   0   4  -5   10.97    0.75
  -1  -4  -5    0.30    0.26
  -1  -4  -5    0.32    0.09
  -1   4  -5    0.43    0.36
  -1   4  -5   -0.12    0.32
  -2  -4  -5   14.19    0.78
  -2   4  -5   12.94    0.89
  -2   4  -5   13.56    0.86
   2   4   5   13.52    0.41
  -3  -4  -5    4.57    0.59
  -3  -4  -5    3.68    0.44
  -3   4  -5    4.92    0.66
  -3   4  -5    3.76    0.63
   3   4   5    4.11    0.27
  -4  -4  -5    0.17    0.27
   4  -4   5    0.69    0.37
  -4  -4  -5    0.66    0.45
  -4   4  -5    1.29    0.57
   4   4   5    0.86    0.20
  -5  -4  -5    6.67    0.79
   5  -4   5    6.68    0.73
  -5  -4  -5    7.57    0.67
  -5   4  -5    7.13    0.93
   5   4   5    9.80    0.53
   6  -4   5   11.92    0.96
  -6  -4  -5   13.04    1.12
  -6  -4  -5   12.91    0.93
  -6   4  -5   13.01    1.25
  -7  -4  -5   15.57    1.23
  -7  -4  -5   14.63    1.00
   7  -4   5   14.97    1.10
  -7   4  -5   13.19    1.23
  -8  -4  -5   12.20    1.03
   8  -4   5   12.01    1.03
  -8  -4  -5   13.45    1.15
  -8   4  -5   15.66    1.56
  -9  -4  -5    0.00    0.54
   9  -4   5   -0.14    0.53
  -9   4  -5   -0.26    0.75
  10  -4   5    4.83    0.97
 -10  -4  -5    2.33    0.72
 -10   4  -5    3.96    0.99
 -11  -4  -5   -0.54    0.67
  11  -4   5    0.06    0.77
 -12  -4  -5    0.60    0.81
  12  -4   5   -1.32    0.67
 -13  -4  -5   -1.34    0.74
  13  -4   5   -2.34    0.76
 -14  -4  -5   -0.59    0.83
  14  -4   5   -0.75    0.84
 -17  -5   5   -0.41    1.27
  17   5  -5    1.16    0.90
 -16  -5   5   -0.73    1.11
  16  -5  -5    0.21    0.96
  16   5  -5    1.35    0.92
  15  -5  -5    5.88    1.32
 -15  -5   5    3.19    1.22
  15   5  -5    5.85    1.22
 -14  -5   5   -1.14    0.97
  14  -5  -5   -0.45    0.82
  14   5  -5    0.42    0.80
  13  -5  -5    0.07    0.80
 -13  -5   5    0.27    0.82
  13   5  -5    0.04    0.76
  12  -5  -5   -0.49    0.66
 -12  -5   5   -0.15    0.83
  12   5  -5    0.00    0.67
 -11  -5   5    0.42    0.78
  11  -5  -5    1.23    0.82
  11   5  -5   -0.02    0.67
 -10  -5   5    3.46    0.80
  10  -5  -5    5.71    0.98
  10   5  -5    4.61    0.93
  -9  -5   5    4.88    0.85
   9  -5  -5    5.75    0.93
   9   5  -5    3.91    0.76
   8  -5  -5    0.85    0.64
  -8  -5   5    1.23    0.62
   8   5  -5    0.50    0.58
  -7  -5   5    1.86    0.57
   7  -5  -5    2.41    0.65
   7   5  -5    1.95    0.55
   6  -5  -5    8.33    0.80
  -6  -5   5    9.21    0.83
   6   5  -5    9.57    0.87
   5  -5  -5   57.04    1.88
  -5  -5   5   58.48    1.90
   5   5  -5   61.69    2.05
  -4  -5   5   46.65    1.57
   4  -5  -5   50.07    1.57
   4   5  -5   50.64    1.77
   3  -5  -5    2.17    0.38
   3  -5  -5    1.99    0.45
  -3  -5   5    1.73    0.33
   3   5  -5    1.94    0.44
   3   5  -5    1.93    0.31
   2  -5  -5   51.14    1.48
  -2  -5   5   50.79    1.45
   2  -5  -5   51.08    1.72
   2   5  -5   49.97    1.77
   2   5  -5   49.68    1.56
   1  -5  -5   58.75    1.59
  -1  -5   5   57.18    1.55
   1  -5  -5   61.87    1.91
   1   5  -5   57.47    1.84
   1   5  -5   62.26    1.99
   0  -5  -5   26.30    1.07
   0  -5  -5   25.26    0.78
   0   5  -5   26.54    1.18
   0   5  -5   24.63    1.13
  -1  -5  -5    9.46    0.67
  -1   5  -5    9.47    0.76
  -1   5  -5    8.99    0.78
  -2  -5  -5    0.26    0.29
  -2   5  -5    0.18    0.36
   2   5   5    0.14    0.15
  -2   5  -5    0.02    0.36
  -3  -5  -5    6.29    0.58
  -3  -5  -5    5.32    0.60
  -3   5  -5    5.60    0.77
  -3   5  -5    5.86    0.74
   3   5   5    5.86    0.34
  -4  -5  -5   23.06    1.16
   4  -5   5   25.86    1.25
  -4  -5  -5   24.46    1.16
  -4   5  -5   26.00    1.42
   4   5   5   25.34    0.90
   5  -5   5    8.34    0.81
  -5  -5  -5   10.54    0.80
  -5  -5  -5   10.73    0.92
  -5   5  -5    9.82    1.09
  -6  -5  -5    2.69    0.69
   6  -5   5    2.11    0.60
  -6  -5  -5    1.88    0.48
  -6   5  -5    1.87    0.73
   7  -5   5    1.46    0.61
  -7  -5  -5    1.46    0.55
  -7  -5  -5    1.96    0.69
  -7   5  -5    1.23    0.73
  -8  -5  -5    0.57    0.55
   8  -5   5   -0.09    0.62
  -8   5  -5    0.03    0.65
   9  -5   5   32.48    1.68
  -9  -5  -5   30.97    1.67
  -9   5  -5   32.63    2.04
 -10  -5  -5    2.93    0.73
  10  -5   5    3.86    0.97
  11  -5   5    2.88    0.98
 -11  -5  -5    1.48    0.79
 -12  -5  -5   -0.22    0.80
  12  -5   5    0.83    0.94
 -13  -5  -5   -0.31    0.80
  13  -5   5    0.34    0.87
 -14  -5  -5   -1.88    0.81
  14  -5   5   -0.78    0.99
 -16  -6   5    0.53    1.20
  16  -6  -5    0.73    1.43
  16   6  -5    2.87    0.98
 -15  -6   5    0.11    0.98
  15  -6  -5   -1.77    0.93
  15   6  -5    1.53    0.90
  14  -6  -5    2.15    1.13
 -14  -6   5    1.08    1.09
  14   6  -5    2.55    0.92
 -13  -6   5    7.81    1.25
  13  -6  -5    9.63    1.38
  13   6  -5    9.80    1.30
  12  -6  -5   14.85    1.51
 -12  -6   5   16.24    1.56
  12   6  -5   16.06    1.39
  11  -6  -5    6.17    1.05
 -11  -6   5    4.60    0.93
  11   6  -5    5.06    0.88
  10  -6  -5    0.46    0.77
 -10  -6   5    1.49    0.79
  10   6  -5    0.22    0.55
   9  -6  -5    6.00    0.98
  -9  -6   5    3.62    0.75
   9   6  -5    4.24    0.78
  -8  -6   5    5.60    0.82
   8  -6  -5    6.76    0.90
   8   6  -5    6.83    0.92
   7  -6  -5   13.43    1.00
  -7  -6   5   14.35    1.09
   7   6  -5   13.48    1.08
  -6  -6   5   -0.16    0.41
   6  -6  -5    1.69    0.50
   6   6  -5   -0.16    0.41
  -5  -6   5    0.88    0.38
   5  -6  -5    0.36    0.36
   5   6  -5    0.26    0.45
  -4  -6   5    2.09    0.40
   4  -6  -5    2.01    0.46
   4   6  -5    2.04    0.50
  -3  -6   5    3.85    0.42
   3  -6  -5    2.84    0.43
   3  -6  -5    3.42    0.56
   3   6  -5    2.63    0.53
   2  -6  -5    6.85    0.51
  -2  -6   5    6.02    0.48
   2  -6  -5    7.91    0.66
   2   6  -5    6.82    0.73
   1  -6  -5    3.85    0.38
   1  -6  -5    3.48    0.53
  -1  -6   5    2.88    0.29
   1   6  -5    3.09    0.57
   1   6  -5    2.91    0.47
   0  -6   5    2.68    0.23
   0  -6  -5    3.48    0.34
   0  -6  -5    2.71    0.45
   0   6  -5    3.14    0.51
   0   6  -5    2.41    0.53
  -1  -6  -5   76.37    2.30
  -1   6  -5   74.96    2.47
  -1   6  -5   74.36    2.45
   1   6   5   76.20    1.98
  -2  -6  -5   26.42    1.16
   2   6   5   26.01    0.86
  -2   6  -5   26.80    1.30
  -2   6  -5   26.80    1.40
  -3  -6  -5    7.03    0.70
  -3  -6  -5    7.23    0.65
   3   6   5    6.87    0.64
  -3   6  -5    7.93    0.94
  -3   6  -5    7.05    0.86
  -4  -6  -5    0.40    0.46
   4  -6   5   -0.21    0.41
  -4  -6  -5   -0.56    0.31
  -4   6  -5   -0.91    0.52
   5  -6   5    2.29    0.63
  -5  -6  -5    2.32    0.50
  -5  -6  -5    3.59    0.65
  -5   6  -5    3.14    0.80
  -6  -6  -5   19.49    1.26
   6  -6   5   18.75    1.18
  -6  -6  -5   19.32    1.17
  -6   6  -5   18.22    1.41
  -7  -6  -5    0.24    1.19
  -7  -6  -5   -0.04    0.46
   7  -6   5    0.50    0.55
  -7   6  -5    1.23    0.75
  -8  -6  -5    1.23    0.56
   8  -6   5   -0.20    0.63
  -9  -6  -5    3.05    0.79
   9  -6   5    3.64    0.83
 -10  -6  -5    3.45    0.84
  10  -6   5    7.14    1.17
  11  -6   5    2.69    0.99
 -11  -6  -5    2.13    0.84
  12  -6   5    3.32    1.14
 -12  -6  -5    1.51    0.80
  13  -6   5   -0.11    0.87
 -13  -6  -5    0.70    0.97
 -14  -6  -5   -1.48    0.91
  14  -6   5   -1.24    1.02
 -16  -7   5   -0.14    1.20
  15  -7  -5   -0.18    0.96
 -15  -7   5    1.79    1.12
  15   7  -5    3.34    0.97
  14  -7  -5    0.28    0.95
 -14  -7   5    0.60    1.09
  14   7  -5    1.95    0.77
  13  -7  -5    0.43    0.88
 -13  -7   5    0.22    0.97
  13   7  -5    1.93    0.78
 -12  -7   5    4.17    1.01
  12  -7  -5    4.95    1.16
  12   7  -5    4.02    0.93
  11  -7  -5    0.74    0.86
 -11  -7   5    0.78    0.84
  11   7  -5    1.37    0.64
 -10  -7   5    4.07    0.90
  10  -7  -5    5.53    0.98
  10   7  -5    5.83    0.95
  -9  -7   5    2.99    0.75
   9  -7  -5    3.72    0.85
   9   7  -5    5.09    0.91
   8  -7  -5    0.86    0.69
  -8  -7   5    1.30    0.64
   8   7  -5    0.20    0.55
   7  -7  -5    0.77    0.55
  -7  -7   5    0.47    0.52
   7   7  -5    0.65    0.52
  -6  -7   5    5.19    0.64
   6  -7  -5    5.20    0.70
   6   7  -5    5.39    0.82
  -5  -7   5   22.50    1.13
   5  -7  -5   24.68    1.19
   5   7  -5   21.75    1.22
   4  -7  -5   19.29    0.99
  -4  -7   5   18.58    0.94
   4   7  -5   17.89    1.09
   3  -7  -5    3.23    0.59
  -3  -7   5    2.91    0.41
   3  -7  -5    2.70    0.46
   3   7  -5    3.18    0.63
  -2  -7   5    7.68    0.55
   2  -7  -5    7.57    0.58
   2  -7  -5    8.39    0.73
   2   7  -5    8.05    0.78
  -1  -7   5   23.82    0.85
   1  -7  -5   24.19    0.94
   1  -7  -5   23.70    1.17
   1   7  -5   24.14    1.26
   0  -7  -5   16.11    0.91
   0  -7  -5   15.93    0.71
   0  -7   5   15.24    0.59
   0   7  -5   14.69    1.06
  -1  -7  -5    3.34    0.55
  -1   7  -5    3.41    0.65
   1   7   5    2.85    0.38
  -2  -7  -5    6.31    0.69
   2   7   5    6.71    0.60
  -2   7  -5    7.14    0.87
  -3  -7  -5   14.24    0.93
  -3  -7  -5   15.08    0.93
  -3   7  -5   12.66    1.04
   4  -7   5   12.71    0.98
  -4  -7  -5   12.77    0.93
  -4  -7  -5   15.29    1.01
   5  -7   5    9.81    0.92
  -5  -7  -5    9.44    0.95
  -5  -7  -5   10.01    0.86
  -6  -7  -5    1.22    0.51
  -6  -7  -5    2.18    0.67
   6  -7   5    1.19    0.60
  -7  -7  -5    2.24    0.58
   7  -7   5    2.69    0.71
   8  -7   5    1.28    0.68
  -8  -7  -5    1.63    0.63
   9  -7   5    4.39    0.99
  -9  -7  -5    2.58    0.71
 -10  -7  -5    2.91    0.82
  10  -7   5    3.57    0.92
 -11  -7  -5    0.57    0.78
  11  -7   5   -0.79    0.71
 -12  -7  -5   -0.50    0.68
  12  -7   5    0.57    0.95
  13  -7   5    0.77    1.08
 -13  -7  -5   -0.47    0.94
 -16  -8   5   -0.91    1.19
  15  -8  -5   -1.35    1.22
 -15  -8   5   -0.65    1.01
  14  -8  -5   -0.74    1.04
 -14  -8   5    0.97    1.13
  14   8  -5    1.93    0.86
 -13  -8   5   -0.66    0.96
  13  -8  -5    3.72    1.05
  13   8  -5    1.84    0.82
 -12  -8   5    3.96    1.01
  12  -8  -5    4.10    1.07
  12   8  -5    6.17    1.05
 -11  -8   5    3.06    0.89
  11  -8  -5    2.00    0.90
  11   8  -5    3.25    0.82
  10  -8  -5    3.68    0.98
 -10  -8   5    2.89    0.89
  10   8  -5    4.01    0.88
   9  -8  -5    3.21    0.82
  -9  -8   5    3.53    0.81
   9   8  -5    4.35    0.85
   8  -8  -5    7.42    1.04
  -8  -8   5    6.08    0.83
   8   8  -5    6.69    0.97
   7  -8  -5    4.12    0.80
  -7  -8   5    3.47    0.65
   7   8  -5    3.66    0.73
  -6  -8   5   -0.33    0.42
   6  -8  -5    0.28    0.54
   6   8  -5   -0.04    0.50
  -5  -8   5    4.32    0.59
   5  -8  -5    5.31    0.75
   5   8  -5    5.30    0.79
  -4  -8   5   11.53    0.83
   4  -8  -5   11.22    0.84
   4   8  -5   10.75    0.94
   3  -8  -5   14.64    0.86
  -3  -8   5   14.38    0.81
   3  -8  -5   13.59    1.05
   3   8  -5   14.73    1.06
   2  -8  -5    9.49    0.87
  -2  -8   5   10.66    0.65
   2  -8  -5    9.77    0.71
   2   8  -5   10.97    1.09
   1  -8  -5    1.34    0.49
  -1  -8   5    1.47    0.29
   1  -8  -5    2.07    0.42
   1   8  -5    2.25    0.61
   0  -8  -5    5.28    0.65
   0   8  -5    6.28    0.85
  -1  -8  -5   40.86    1.59
   1   8   5   40.27    1.40
  -1   8  -5   38.99    1.77
  -2  -8  -5   27.97    1.29
  -2   8  -5   28.52    1.55
  -3  -8  -5    7.37    0.77
  -3  -8  -5    5.51    0.67
  -3   8  -5    8.11    0.99
  -4  -8  -5   -0.19    0.44
  -4  -8  -5    0.26    0.42
   4  -8   5   -0.29    0.46
  -5  -8  -5    7.45    0.81
   5  -8   5    8.37    1.02
  -5  -8  -5    7.66    0.85
   6  -8   5    1.10    0.60
  -6  -8  -5    0.53    0.48
  -7  -8  -5   15.25    1.22
   7  -8   5   14.83    1.26
   8  -8   5    4.69    1.00
  -8  -8  -5    3.67    0.81
   9  -8   5    3.41    0.89
  -9  -8  -5    3.57    0.86
 -10  -8  -5    3.56    0.93
  10  -8   5    4.07    1.01
 -11  -8  -5    1.66    0.77
  11  -8   5    2.64    0.97
 -12  -8  -5    3.18    1.05
  12  -8   5    3.78    1.20
 -13  -8  -5    0.66    0.96
 -15  -9   5   -0.14    1.21
 -14  -9   5    1.52    1.13
  14  -9  -5    0.37    1.14
 -13  -9   5   -0.49    0.87
  13  -9  -5   -0.57    0.89
  13   9  -5    0.88    0.70
  12  -9  -5   -0.08    0.87
 -12  -9   5   -0.12    0.77
  12   9  -5    0.31    0.67
  11  -9  -5   -0.92    0.85
 -11  -9   5   -0.55    0.81
  11   9  -5   -0.28    0.61
  10  -9  -5    1.23    0.79
 -10  -9   5    2.59    0.88
  10   9  -5    3.65    0.85
  -9  -9   5    0.02    0.62
   9  -9  -5    0.72    0.70
   9   9  -5    0.31    0.58
  -8  -9   5    0.60    0.56
   8  -9  -5    1.88    0.69
   8   9  -5    2.04    0.68
   7  -9  -5    3.78    0.82
  -7  -9   5    3.43    0.70
   7   9  -5    3.84    0.79
   6  -9  -5    3.96    0.78
  -6  -9   5    3.88    0.66
   6   9  -5    4.06    0.81
  -5  -9   5    4.02    0.62
   5  -9  -5    5.22    0.75
   5   9  -5    3.99    0.75
   4  -9  -5    6.57    0.78
  -4  -9   5    4.65    0.58
   4   9  -5    5.92    0.91
  -3  -9   5   -0.06    0.31
   3  -9  -5    0.20    0.41
   3  -9  -5   -0.77    0.41
   3   9  -5   -0.17    0.44
   2  -9  -5   13.26    0.84
  -2  -9   5   12.90    0.76
   2  -9  -5   13.36    1.05
   2   9  -5   13.27    1.14
   1  -9  -5   41.24    1.46
   1  -9  -5   38.99    1.69
   1   9  -5   38.56    1.84
   0  -9  -5    0.30    0.34
   0  -9  -5    0.19    0.38
   0   9  -5    0.56    0.54
  -1  -9  -5    0.05    0.39
  -1   9  -5   -0.20    0.50
  -2  -9  -5   -0.11    0.40
  -2   9  -5    0.31    0.55
  -3  -9  -5    2.07    0.52
  -3  -9  -5    2.95    0.59
  -3   9  -5    2.76    0.82
  -4  -9  -5    7.14    0.82
   4  -9   5    7.17    0.94
  -4  -9  -5    5.91    0.75
   5  -9   5   -0.19    0.49
  -5  -9  -5    0.81    0.45
  -6  -9  -5    5.31    0.82
   6  -9   5    5.54    0.91
   7  -9   5    1.51    0.70
  -8  -9  -5    1.48    0.63
   8  -9   5    1.41    0.75
   9  -9   5    1.55    0.89
  -9  -9  -5    2.70    0.79
 -10  -9  -5    0.62    0.76
  10  -9   5   -0.26    0.80
  11  -9   5   -0.42    0.78
 -11  -9  -5    0.02    0.70
  12  -9   5   -0.34    1.09
 -12  -9  -5   -1.56    0.83
 -14 -10   5   -1.01    1.14
 -13 -10   5    0.20    1.01
  13 -10  -5   -0.76    1.04
 -12 -10   5    2.17    0.99
  12 -10  -5    2.58    1.08
  12  10  -5    4.22    0.92
 -11 -10   5    2.23    0.83
  11 -10  -5    0.07    0.86
  11  10  -5    1.11    0.63
  10 -10  -5   -0.83    0.82
 -10 -10   5    0.44    0.82
  10  10  -5    1.53    0.70
  -9 -10   5   -0.25    0.67
   9 -10  -5    0.31    0.70
   9  10  -5    0.48    0.54
   8 -10  -5    1.90    0.80
  -8 -10   5    2.03    0.74
   8  10  -5    2.77    0.77
  -7 -10   5    6.39    0.88
   7 -10  -5    6.84    1.02
   7  10  -5    8.07    1.02
  -6 -10   5    4.05    0.71
   6 -10  -5    4.99    0.86
   6  10  -5    3.77    0.82
  -5 -10   5    3.78    0.65
   5 -10  -5    4.91    0.79
   5  10  -5    4.09    0.82
  -4 -10   5   18.89    1.06
   4 -10  -5   17.86    1.24
   4 -10  -5   17.04    1.12
   4  10  -5   17.37    1.32
   3 -10  -5   33.68    1.72
   3 -10  -5   35.03    1.50
  -3 -10   5   35.95    1.43
   3  10  -5   36.54    1.83
   2 -10  -5    8.77    0.84
   2 -10  -5    7.07    0.88
   2  10  -5    9.56    1.15
   1 -10  -5    4.17    0.60
   1 -10  -5    3.83    0.69
   1  10  -5    4.35    0.83
   0 -10  -5    0.42    0.47
   0  10  -5    0.41    0.63
  -1 -10  -5   22.47    1.26
  -1  10  -5   21.97    1.43
  -2 -10  -5   28.83    1.41
  -2 -10  -5   28.35    1.46
  -2  10  -5   27.17    1.61
  -3 -10  -5    9.09    0.88
  -3 -10  -5   10.36    0.92
  -3  10  -5   10.73    1.25
  -4 -10  -5    0.85    0.46
   4 -10   5    2.09    0.66
   5 -10   5    3.04    0.72
  -5 -10  -5    1.46    0.58
  -6 -10  -5    0.57    0.52
   6 -10   5    0.21    0.58
   7 -10   5    7.64    1.08
  -7 -10  -5    8.14    1.01
  -8 -10  -5    1.44    0.72
   8 -10   5    1.11    0.83
  -9 -10  -5   -0.20    0.68
   9 -10   5    0.00    0.80
  10 -10   5    2.45    1.07
 -10 -10  -5    2.15    0.85
 -11 -10  -5    4.69    1.10
  11 -10   5    4.27    1.16
 -12 -10  -5    1.23    1.02
  13 -11  -5   -0.99    1.02
 -13 -11   5    0.68    1.06
  12 -11  -5   -1.83    0.83
 -12 -11   5   -0.80    0.85
  11 -11  -5   -1.04    0.89
 -11 -11   5   -1.03    0.69
  11  11  -5    0.57    0.67
  10 -11  -5   -0.08    0.79
 -10 -11   5   -0.08    0.83
  10  11  -5    1.19    0.66
  -9 -11   5   -0.12    0.74
   9 -11  -5   -0.11    0.77
   9  11  -5    0.77    0.58
   8 -11  -5   -0.64    0.62
  -8 -11   5   -0.99    0.59
   8  11  -5    0.65    0.62
   7 -11  -5   -1.07    0.58
  -7 -11   5    0.00    0.57
   7  11  -5    1.02    0.65
   6 -11  -5    2.69    0.77
  -6 -11   5    1.20    0.56
   6  11  -5    1.96    0.66
  -5 -11   5   -0.27    0.43
   5 -11  -5   -0.19    0.52
   5  11  -5    0.44    0.53
   4 -11  -5    1.64    0.67
  -4 -11   5   -0.17    0.40
   4 -11  -5    0.04    0.50
   4  11  -5    0.05    0.52
   3 -11  -5   -0.31    0.44
   3 -11  -5    0.48    0.51
   3  11  -5    0.66    0.60
   2 -11  -5    6.04    0.90
   2 -11  -5    5.93    0.75
   2  11  -5    6.13    0.93
   1 -11  -5    1.84    0.61
   1  11  -5    2.54    0.73
   0 -11  -5    0.19    0.46
   0  11  -5    0.43    0.58
  -1 -11  -5   -0.14    0.42
  -1  11  -5    0.09    0.56
  -2 -11  -5   -0.10    0.46
  -2 -11  -5    0.50    0.44
  -2  11  -5    0.39    0.59
  -3 -11  -5    1.61    0.56
  -3  11  -5    1.03    0.73
  -4 -11  -5   -0.02    0.38
   4 -11   5    0.03    0.52
  -5 -11  -5    0.47    0.46
   5 -11   5    0.62    0.66
   6 -11   5    0.47    0.63
  -6 -11  -5    0.74    0.54
  -7 -11  -5    3.14    0.77
   7 -11   5    1.20    0.75
  -8 -11  -5   -0.30    0.65
   8 -11   5    1.50    0.78
   9 -11   5    0.98    0.83
  -9 -11  -5    2.10    0.80
  10 -11   5   -0.16    0.89
 -10 -11  -5    0.20    0.78
 -11 -11  -5   -0.94    0.70
 -13 -12   5    0.82    1.01
  12 -12  -5    1.10    1.18
 -12 -12   5    2.12    1.19
  11 -12  -5   -0.11    1.02
 -11 -12   5    0.12    0.92
 -10 -12   5   -1.11    0.76
  10 -12  -5   -1.45    0.71
  10  12  -5    0.66    0.64
  -9 -12   5    1.90    0.83
   9 -12  -5    2.24    0.95
   9  12  -5    5.07    0.99
  -8 -12   5    3.42    0.87
   8 -12  -5    3.47    1.00
   8  12  -5    4.76    1.00
   7 -12  -5    6.85    1.11
  -7 -12   5    6.06    0.95
   7  12  -5    6.58    1.03
  -6 -12   5    3.77    0.76
   6 -12  -5    4.62    0.86
   6  12  -5    4.60    0.93
   5 -12  -5    1.38    0.62
  -5 -12   5    0.04    0.49
   5 -12  -5    0.55    0.60
   5  12  -5    0.63    0.65
   4 -12  -5    7.24    1.07
   4 -12  -5    5.02    0.84
   4  12  -5    6.41    1.09
   3 -12  -5    1.14    0.56
   3 -12  -5    0.84    0.60
   3  12  -5    0.69    0.67
   2 -12  -5    7.88    1.00
   2  12  -5    8.14    1.10
   1 -12  -5    7.72    0.96
   1  12  -5    9.68    1.20
   0 -12  -5    1.17    0.55
   0  12  -5    0.49    0.69
  -1 -12  -5   10.75    1.01
  -1  12  -5   11.75    1.33
  -2 -12  -5   20.12    1.30
  -2 -12  -5   17.53    2.00
  -2  12  -5   15.17    1.47
  -3 -12  -5   12.48    1.14
  -3  12  -5   11.54    1.39
   4 -12   5    3.26    0.80
  -4 -12  -5    2.21    0.68
   5 -12   5    1.69    0.72
  -5 -12  -5    1.61    0.65
  -6 -12  -5    2.32    0.67
   6 -12   5    2.36    0.81
   7 -12   5   11.01    1.34
  -7 -12  -5   10.69    1.27
   8 -12   5    2.78    0.95
  -8 -12  -5    2.92    0.79
   9 -12   5    0.66    1.12
  -9 -12  -5   -0.59    0.74
 -10 -12  -5   -0.09    0.78
 -11 -13   5   -1.06    0.93
  11 -13  -5   -0.63    0.90
  10 -13  -5   -1.23    0.92
 -10 -13   5   -1.77    0.80
  -9 -13   5   -1.31    0.74
   9 -13  -5   -0.83    0.82
   9  13  -5    0.56    0.82
   8 -13  -5   -0.75    0.77
  -8 -13   5   -0.23    0.71
   8  13  -5    0.47    0.67
   7 -13  -5   -0.45    0.75
  -7 -13   5   -0.29    0.64
   7  13  -5    0.57    0.68
   6 -13  -5    1.19    0.76
   6  13  -5    0.99    0.69
   5 -13  -5   -0.14    0.59
   5 -13  -5    1.12    0.62
   5  13  -5   -0.28    0.59
   4 -13  -5   -0.45    0.55
   4 -13  -5    1.32    0.63
   4  13  -5    0.54    0.68
   3 -13  -5   -0.33    0.52
   3  13  -5   -0.24    0.62
   2 -13  -5    1.47    0.64
   2  13  -5    1.81    0.82
   1 -13  -5   -0.04    0.52
   1  13  -5   -0.39    0.56
   0 -13  -5    0.33    0.51
   0  13  -5    0.43    0.64
  -1 -13  -5    0.62    0.56
  -1 -13  -5    1.34    0.54
  -1  13  -5    0.67    0.70
  -2 -13  -5    2.09    0.64
  -2  13  -5    2.65    0.95
  -3 -13  -5    2.02    0.65
   3 -13   5    3.48    0.84
  -4 -13  -5    0.41    0.50
   4 -13   5    1.34    0.69
   5 -13   5    0.51    0.67
  -5 -13  -5    0.88    0.64
  -6 -13  -5    0.03    0.52
   6 -13   5    1.28    0.77
   7 -13   5    0.19    0.79
  -7 -13  -5    0.84    0.77
  -8 -13  -5   -0.44    0.71
  -9 -13  -5   -0.07    0.70
  10 -14  -5   -0.72    0.99
 -10 -14   5   -1.03    0.88
  -9 -14   5   -0.45    0.81
   9 -14  -5   -0.18    0.81
  -8 -14   5    0.57    0.97
   8 -14  -5    1.09    0.95
   7 -14  -5    1.79    0.92
   7  14  -5    3.45    0.97
   6 -14  -5    3.19    0.81
   6 -14  -5   -0.08    0.63
   6  14  -5    0.95    0.72
   5 -14  -5    1.88    0.69
   5  14  -5    0.67    0.73
   4 -14  -5    3.82    0.83
   4  14  -5    2.57    0.83
   3 -14  -5    8.53    1.16
   3  14  -5    6.68    1.18
   2 -14  -5    5.34    0.95
   2  14  -5    5.01    1.10
   1 -14  -5    0.72    0.63
   1  14  -5    0.75    0.76
   0 -14  -5    0.16    0.57
   0  14  -5    0.84    0.71
  -1 -14  -5    8.32    1.01
  -1  14  -5    6.20    1.22
  -2 -14  -5   15.17    1.27
  -2  14  -5   15.28    1.69
   3 -14   5    4.74    0.95
  -3 -14  -5    1.62    0.67
  -4 -14  -5    0.16    0.55
   4 -14   5    1.73    0.75
  -5 -14  -5    0.94    0.61
   5 -14   5    1.28    0.73
  -6 -14  -5    0.94    0.65
   6 -14   5    3.19    1.02
  -7 -14  -5    4.43    1.03
   9 -15  -5   -0.07    1.13
   8 -15  -5   -1.21    0.75
   7 -15  -5   -1.34    0.77
   7 -15  -5    2.11    0.68
   6 -15  -5    2.52    0.78
   6  15  -5    1.01    0.80
   5 -15  -5    2.66    0.73
   5  15  -5    0.44    0.69
   4 -15  -5    0.65    0.56
   4  15  -5    0.07    0.63
   3 -15  -5    1.14    0.71
   3  15  -5    0.31    0.71
   2 -15  -5    1.63    0.74
   2  15  -5    0.61    0.69
   1 -15  -5    1.47    0.71
   1  15  -5    0.46    0.75
   0 -15  -5    2.15    0.57
   0  15  -5    0.67    0.87
  -1 -15  -5    0.50    0.46
  -1  15  -5   -0.74    0.65
  -2 -15  -5    0.52    0.53
  -2  15  -5    0.34    0.86
  -3 -15  -5    1.62    0.70
   3 -15   5    3.62    0.87
  -4 -15  -5    1.37    0.69
   4 -15   5    2.21    0.79
  -5 -15  -5    0.64    0.68
  -6 -15  -5   -0.48    0.65
   6 -16  -5    3.97    0.86
   5 -16  -5    3.10    0.84
   5  16  -5    1.33    0.87
   4 -16  -5    2.59    0.83
   4  16  -5    0.99    0.87
   3 -16  -5    1.10    0.71
   3  16  -5    0.70    0.85
   2 -16  -5    1.56    0.76
   2  16  -5   -1.37    0.65
   1 -16  -5    1.86    0.52
   1  16  -5    1.18    0.91
   0 -16  -5    2.20    0.59
   0  16  -5    1.02    0.94
  -1 -16  -5    2.56    0.69
  -1  16  -5    1.26    0.99
   2 -16   5    5.82    1.63
  -2 -16  -5    3.49    0.81
  -3 -16  -5    1.06    0.66
  17   0  -6    1.91    0.97
  16   0  -6   11.15    1.55
  15   0  -6    0.58    0.86
  14   0  -6   -0.45    0.83
  13   0  -6    1.98    0.91
  12   0  -6    8.03    1.17
  11   0  -6    7.26    1.03
  10   0  -6    5.46    0.96
   9   0  -6    2.62    0.71
   8   0  -6    0.85    0.58
   7   0  -6    9.02    0.56
   7   0  -6    8.89    0.80
   6   0  -6   25.69    1.13
   6   0  -6   24.67    0.94
   5   0  -6    1.12    0.26
   5   0  -6    1.20    0.39
   4   0  -6   12.24    0.69
   4   0  -6   12.55    0.61
   3   0  -6    5.79    0.45
   3   0  -6    5.82    0.47
   2   0  -6   95.52    2.44
   2   0  -6   95.15    2.49
   1   0  -6   11.51    0.65
   1   0  -6    9.79    0.51
   0   0  -6   61.93    1.87
   0   0  -6   63.31    1.68
  -1   0  -6   22.84    0.80
  -1   0  -6   22.48    1.02
  -2   0  -6   59.26    1.97
   2   0   6   60.39    1.64
  -2   0  -6   62.47    1.66
  -3   0  -6  570.90   13.44
   3   0   6  561.85   13.03
  -3   0  -6  586.94   13.08
   4   0   6   82.88    2.24
  -4   0  -6   83.43    2.61
  -4   0  -6   82.21    2.25
  -5   0  -6   61.06    1.86
   5   0   6   63.50    1.85
  -5   0  -6   61.98    2.21
  -6   0  -6    3.82    0.77
   6   0   6    4.66    0.59
  -6   0  -6    4.41    0.53
  -7   0  -6   13.61    0.92
   7   0   6   12.23    0.89
  -7   0  -6   12.87    1.28
  -8   0  -6    8.59    1.15
  -8   0  -6    8.03    0.83
   8   0   6    8.47    0.87
  -9   0  -6   11.65    1.06
  -9   0  -6   12.59    1.37
   9   0   6   11.41    0.98
 -10   0  -6    1.30    0.78
 -10   0  -6   -0.59    0.56
 -11   0  -6    3.51    1.00
 -12   0  -6    1.45    0.90
  17  -1  -6    0.02    0.89
  17   1  -6    1.12    0.97
  16  -1  -6    1.13    0.91
  16   1  -6    1.56    0.97
  15  -1  -6    1.45    0.91
  15   1  -6    2.12    0.92
  14  -1  -6    0.87    0.89
  14   1  -6    0.38    0.79
  13  -1  -6    1.26    0.80
  13   1  -6    1.35    0.80
  12  -1  -6   -0.54    0.65
  12   1  -6    0.38    0.77
  11  -1  -6    0.39    0.78
  11   1  -6   -0.46    0.76
  10  -1  -6   -0.54    0.60
  10   1  -6    0.39    0.63
   9  -1  -6    6.56    0.88
   9   1  -6    6.41    0.52
   9   1  -6    5.02    0.87
   8  -1  -6    0.81    0.53
   8   1  -6    0.66    0.26
   8   1  -6    0.86    0.54
   7  -1  -6    4.87    0.53
   7  -1  -6    4.17    0.65
   7   1  -6    4.01    0.40
   7   1  -6    4.19    0.66
   6  -1  -6    4.41    0.59
   6  -1  -6    3.80    0.46
   6   1  -6    3.29    0.54
   6   1  -6    3.59    0.34
   5  -1  -6   -0.01    0.23
   5  -1  -6   -0.11    0.34
   5   1  -6   -0.09    0.18
   5   1  -6   -0.04    0.32
   4  -1  -6    0.29    0.22
   4  -1  -6    0.15    0.30
   4   1  -6   -0.16    0.28
   4   1  -6    0.35    0.23
   3  -1  -6    1.32    0.32
   3  -1  -6    1.21    0.31
   3   1  -6    1.03    0.31
   3   1  -6    1.59    0.31
   2  -1  -6    0.70    0.25
   2  -1  -6    0.46    0.27
   2   1  -6    0.74    0.30
   2   1  -6    0.65    0.31
   1  -1  -6    0.45    0.29
   1  -1  -6    0.58    0.21
   1   1  -6    0.43    0.25
   1   1  -6    0.75    0.36
   0  -1  -6    9.07    0.40
   0  -1  -6    8.40    0.62
   0   1  -6    9.33    0.66
   0   1  -6    9.01    0.53
  -1  -1  -6    2.12    0.43
  -1  -1  -6    1.83    0.22
  -1   1  -6    1.44    0.42
  -1   1  -6    1.58    0.33
  -2  -1  -6   11.71    0.78
  -2   1  -6   11.50    0.81
   2   1   6   10.80    0.44
  -2   1  -6   11.50    0.63
  -2   1  -6   11.63    0.48
  -3  -1  -6   82.17    2.26
   3  -1   6   83.12    2.26
  -3  -1  -6   81.27    2.53
  -3   1  -6   85.78    2.15
  -3   1  -6   85.98    2.60
   3   1   6   81.15    2.11
  -4  -1  -6   -0.25    0.47
  -4  -1  -6    0.12    0.22
   4  -1   6   -0.33    0.27
   4   1   6    0.44    0.25
  -4   1  -6    0.13    0.22
  -4   1  -6    0.51    0.48
   5  -1   6    6.34    0.60
  -5  -1  -6    6.84    0.61
  -5  -1  -6    6.45    0.80
  -5   1  -6    7.88    0.60
   5   1   6    6.19    0.57
  -5   1  -6    6.45    0.88
  -6  -1  -6    9.17    1.02
  -6  -1  -6    8.30    0.72
   6  -1   6    8.59    0.73
  -6   1  -6    7.45    0.70
  -6   1  -6    8.72    1.04
   6   1   6    8.30    0.68
  -7  -1  -6    1.60    0.75
  -7  -1  -6    1.71    0.49
   7  -1   6    2.19    0.56
   7   1   6    2.07    0.53
  -7   1  -6    2.67    0.77
  -7   1  -6    2.17    0.50
  -8  -1  -6    3.50    0.61
  -8  -1  -6    4.27    0.94
   8  -1   6    4.38    0.74
   8   1   6    4.10    0.88
  -8   1  -6    3.64    0.62
  -8   1  -6    3.92    0.98
  -9  -1  -6    0.86    0.75
   9  -1   6    1.97    0.65
  -9  -1  -6    1.50    0.61
  -9   1  -6    1.79    0.84
  10  -1   6   -0.25    0.59
 -10  -1  -6   -0.18    0.58
 -10  -1  -6   -0.10    0.72
 -10   1  -6    0.38    0.72
 -11  -1  -6    0.76    0.81
 -11  -1  -6   -0.02    0.68
 -11   1  -6    1.30    0.87
 -12   1  -6   -0.40    0.79
 -13   1  -6    0.00    1.01
  17  -2  -6    2.02    1.07
  17   2  -6    2.74    1.11
  16  -2  -6    2.09    1.04
  16   2  -6    2.26    1.01
  15  -2  -6    0.78    0.93
  15   2  -6    0.19    0.89
  14  -2  -6    2.98    0.98
  14   2  -6    2.14    0.94
  13  -2  -6    0.21    0.72
  13   2  -6    0.18    0.69
  12  -2  -6    8.58    1.13
  12   2  -6    4.99    0.96
  11  -2  -6    6.31    0.99
  11   2  -6    6.60    0.99
  10  -2  -6   14.36    1.29
 -10  -2   6   12.89    1.28
  10   2  -6   11.98    1.13
   9  -2  -6    0.43    0.65
  -9  -2   6    0.90    0.61
   9   2  -6    0.49    0.66
  -8  -2   6   61.83    2.19
   8  -2  -6   61.69    2.14
   8   2  -6   58.49    2.12
   8   2  -6   56.30    1.61
   7  -2  -6   14.11    0.93
  -7  -2   6   14.76    1.08
   7   2  -6   13.16    0.93
   7   2  -6   14.35    0.58
   6  -2  -6   47.87    1.60
   6  -2  -6   47.78    1.68
   6   2  -6   47.90    1.32
   6   2  -6   47.86    1.72
   5  -2  -6    0.77    0.41
   5  -2  -6    0.69    0.29
   5   2  -6    0.60    0.22
   5   2  -6    0.59    0.36
   4  -2  -6   12.18    0.71
   4  -2  -6   13.42    0.70
   4   2  -6   12.99    0.77
   4   2  -6   12.96    0.59
   3  -2  -6   11.48    0.64
   3  -2  -6   11.67    0.62
   3   2  -6   12.78    0.74
   3   2  -6   12.64    0.63
   2  -2  -6    0.10    0.26
   2  -2  -6    0.30    0.25
   2   2  -6    0.39    0.29
   2   2  -6    0.68    0.31
   1  -2  -6   44.83    1.18
   1  -2  -6   45.40    1.45
   1   2  -6   45.16    1.46
   1   2  -6   44.77    1.45
   0  -2  -6    1.17    0.35
   0  -2  -6    0.96    0.13
   0   2  -6    1.45    0.40
   0   2  -6    0.98    0.33
  -1  -2  -6    2.15    0.43
  -1   2  -6    3.59    0.53
  -1   2  -6    2.89    0.41
  -2  -2  -6    0.26    0.35
   2   2   6    0.21    0.13
  -2   2  -6    0.11    0.40
  -2   2  -6   -0.11    0.28
   3  -2   6   33.56    1.21
  -3  -2  -6   33.16    1.18
  -3  -2  -6   33.75    1.40
   3   2   6   33.78    0.96
  -3   2  -6   32.87    0.98
  -3   2  -6   33.00    1.45
  -4  -2  -6    0.39    0.24
   4  -2   6    0.39    0.34
   4   2   6    0.19    0.23
  -4   2  -6    0.17    0.47
  -4   2  -6    0.49    0.25
   5  -2   6   -0.43    0.33
  -5  -2  -6    0.34    0.57
  -5  -2  -6   -0.06    0.28
   5   2   6   -0.35    0.26
  -5   2  -6    0.81    0.56
  -5   2  -6    0.48    0.29
  -6  -2  -6    5.87    0.63
  -6  -2  -6    5.48    0.85
   6  -2   6    6.64    0.72
  -6   2  -6    4.36    0.89
  -6   2  -6    4.99    0.53
   6   2   6    5.91    0.59
  -7  -2  -6    6.62    0.93
  -7  -2  -6    5.45    0.68
   7  -2   6    6.62    0.76
  -7   2  -6    5.90    0.95
  -7   2  -6    6.85    1.07
   8  -2   6   14.80    1.09
  -8  -2  -6   15.13    1.10
  -8  -2  -6   15.85    1.36
  -8   2  -6   15.76    1.45
  -9  -2  -6    4.25    0.73
   9  -2   6    5.14    0.83
  -9  -2  -6    4.38    0.93
  -9   2  -6    4.69    1.00
 -10  -2  -6    0.49    0.74
  10  -2   6   -0.01    0.66
 -10  -2  -6    1.32    0.66
 -10   2  -6    0.83    0.77
 -11  -2  -6    0.74    0.73
  11  -2   6    0.84    0.76
 -11   2  -6    1.70    0.95
 -12  -2  -6    2.37    0.86
 -12   2  -6    6.31    1.32
 -13   2  -6    3.71    1.02
  17  -3  -6   -0.12    0.94
  17   3  -6    2.00    1.03
  16  -3  -6   -0.10    0.91
  16   3  -6    0.12    0.87
  15  -3  -6    1.16    1.01
  15   3  -6    0.91    0.83
  14  -3  -6    0.99    0.97
  14   3  -6    1.33    0.90
  13  -3  -6    0.80    0.88
 -13  -3   6    0.85    0.86
  13   3  -6    0.86    0.85
 -12  -3   6    0.49    0.77
  12  -3  -6    0.44    0.75
  12   3  -6    1.60    0.84
  11  -3  -6    1.32    0.85
 -11  -3   6    1.79    0.89
  11   3  -6    1.14    0.79
  10  -3  -6    7.34    1.06
 -10  -3   6    7.36    1.06
  10   3  -6    8.02    1.08
   9  -3  -6    5.90    0.86
  -9  -3   6    4.97    0.91
   9   3  -6    5.66    0.91
  -8  -3   6    2.84    0.64
   8  -3  -6    3.69    0.73
   8   3  -6    3.29    0.71
  -7  -3   6    7.08    0.81
   7  -3  -6    8.21    0.80
   7   3  -6    5.86    0.73
   6  -3  -6   -0.15    0.42
  -6  -3   6    0.07    0.37
   6   3  -6   -0.14    0.36
  -5  -3   6    1.41    0.42
   5  -3  -6    1.28    0.39
   5  -3  -6    1.14    0.38
   5   3  -6    1.66    0.33
   5   3  -6    1.00    0.40
   4  -3  -6    0.12    0.31
  -4  -3   6   -0.23    0.30
   4  -3  -6    0.03    0.29
   4   3  -6    0.29    0.22
   4   3  -6   -0.10    0.29
   3  -3  -6    1.01    0.32
   3  -3  -6    0.44    0.28
   3   3  -6    0.55    0.27
   3   3  -6    0.11    0.33
   2  -3  -6    8.51    0.59
   2  -3  -6    9.18    0.49
   2   3  -6   10.11    0.63
   2   3  -6    9.00    0.63
   1  -3  -6   19.71    0.88
   1  -3  -6   20.22    0.63
   1   3  -6   18.90    0.91
   1   3  -6   20.64    0.92
   0  -3  -6    1.66    0.40
   0   3  -6    1.52    0.38
   0   3  -6    1.80    0.42
  -1  -3  -6   49.47    1.66
  -1   3  -6   53.50    1.72
  -1   3  -6   51.10    1.79
  -2  -3  -6   20.22    1.02
  -2   3  -6   20.18    0.96
  -2   3  -6   19.71    1.09
  -3  -3  -6    0.21    0.27
  -3  -3  -6    1.00    0.44
   3   3   6    1.23    0.16
  -3   3  -6    1.01    0.42
  -3   3  -6    0.44    0.45
  -4  -3  -6    0.51    0.50
   4  -3   6   -0.08    0.35
  -4  -3  -6    0.41    0.29
   4   3   6    0.43    0.20
  -4   3  -6   -0.43    0.50
  -4   3  -6   -0.46    0.21
  -5  -3  -6    4.37    0.55
   5  -3   6    5.68    0.67
  -5  -3  -6    4.55    0.78
   5   3   6    4.84    0.46
  -5   3  -6    3.77    0.78
  -5   3  -6    3.84    0.68
  -6  -3  -6    2.14    0.70
   6  -3   6    3.00    0.57
  -6  -3  -6    2.44    0.48
  -6   3  -6    3.62    0.87
  -7  -3  -6    0.86    0.71
  -7  -3  -6   -0.21    0.42
   7  -3   6    0.93    0.57
  -7   3  -6    0.50    0.74
   8  -3   6    2.61    0.69
  -8  -3  -6    2.02    0.54
  -8  -3  -6    3.17    0.82
  -8   3  -6    1.70    0.81
   9  -3   6   -0.24    0.58
  -9  -3  -6    0.25    0.68
  -9  -3  -6   -0.42    0.48
  -9   3  -6   -0.68    0.69
 -10  -3  -6   -0.16    0.58
  10  -3   6   -0.34    0.63
 -10   3  -6    0.58    0.83
  11  -3   6   -0.50    0.74
 -11  -3  -6   -0.22    0.68
 -11   3  -6   -0.12    0.78
 -12  -3  -6   -0.98    0.71
  12  -3   6   -0.59    0.72
 -12   3  -6   -0.20    0.83
 -13  -3  -6   -0.67    0.81
  17   4  -6    2.27    1.00
  16  -4  -6    0.79    1.00
  16   4  -6    2.45    0.94
  15  -4  -6   -0.53    0.86
 -15  -4   6   -0.35    0.94
  15   4  -6    1.28    0.91
  14  -4  -6    0.92    1.00
 -14  -4   6   -0.19    0.87
  14   4  -6    0.15    0.82
  13  -4  -6   -0.09    0.77
 -13  -4   6    0.19    0.82
  13   4  -6    0.54    0.80
  12  -4  -6    2.82    0.85
 -12  -4   6    3.31    0.97
  12   4  -6    4.85    0.95
 -11  -4   6    9.02    1.19
  11  -4  -6   10.39    1.25
  11   4  -6    9.12    1.18
  10  -4  -6   10.93    1.20
 -10  -4   6    8.20    1.03
  10   4  -6    9.36    1.09
   9  -4  -6    0.27    0.60
  -9  -4   6    0.43    0.69
   9   4  -6   -0.26    0.61
  -8  -4   6    9.69    0.96
   8  -4  -6   10.81    0.95
   8   4  -6   11.32    0.96
   7  -4  -6   13.06    0.97
  -7  -4   6   13.50    1.06
   7   4  -6   12.30    0.93
  -6  -4   6    0.09    0.37
   6  -4  -6   -0.19    0.42
   6   4  -6   -0.15    0.40
  -5  -4   6   12.66    0.84
   5  -4  -6   12.08    0.85
   5  -4  -6   13.39    0.77
   5   4  -6   13.23    0.86
  -4  -4   6   19.17    0.90
   4  -4  -6   16.93    0.93
   4  -4  -6   19.21    0.87
   4   4  -6   19.45    0.73
   4   4  -6   19.06    0.99
   3  -4  -6   30.14    1.04
   3  -4  -6   29.78    1.23
  -3  -4   6   29.87    1.08
   3   4  -6   29.76    1.04
   3   4  -6   29.88    1.26
   2  -4  -6    8.86    0.50
   2  -4  -6    9.62    0.68
  -2  -4   6    9.25    0.54
   2   4  -6    8.07    0.59
   2   4  -6    9.24    0.68
   1  -4  -6   18.18    0.64
   1  -4  -6   19.38    0.93
   1   4  -6   18.84    0.95
   1   4  -6   19.54    0.92
   0  -4  -6    1.21    0.16
   0  -4  -6    1.19    0.35
   0   4  -6    1.32    0.42
   0   4  -6    1.87    0.47
  -1  -4  -6    2.30    0.43
  -1   4  -6    1.65    0.46
  -1   4  -6    1.64    0.43
  -2  -4  -6   20.76    1.02
  -2   4  -6   19.16    1.15
  -2   4  -6   17.88    0.98
  -3  -4  -6   18.37    1.03
  -3  -4  -6   18.07    0.92
  -3   4  -6   17.47    1.14
   3   4   6   17.86    0.51
  -3   4  -6   19.32    1.08
   4  -4   6   10.58    0.77
  -4  -4  -6   11.24    0.78
  -4  -4  -6   10.22    0.92
  -4   4  -6   10.77    1.07
   5  -4   6    2.60    0.59
  -5  -4  -6    3.40    0.70
  -5  -4  -6    3.15    0.53
  -5   4  -6    2.62    0.73
  -6  -4  -6    4.31    0.81
  -6  -4  -6    2.99    0.55
   6  -4   6    3.44    0.68
  -6   4  -6    3.80    0.84
   7  -4   6    0.55    0.58
  -7  -4  -6   -0.35    0.63
  -7  -4  -6   -0.34    0.42
  -7   4  -6    0.10    0.64
   8  -4   6    5.32    0.82
  -8  -4  -6    4.90    0.77
  -8  -4  -6    5.76    0.95
  -8   4  -6    5.07    1.07
   9  -4   6    0.87    0.60
  -9  -4  -6    2.14    0.66
  -9   4  -6    2.65    0.97
  10  -4   6    0.72    0.76
 -10  -4  -6    2.78    0.78
 -10   4  -6    3.65    1.13
 -11  -4  -6    3.21    0.90
  11  -4   6    4.18    0.99
 -11   4  -6    5.31    1.21
  12  -4   6    2.60    0.98
 -12  -4  -6    1.65    0.89
 -13  -4  -6   -0.02    0.81
 -14  -4  -6    0.58    0.99
  17   5  -6   -0.16    0.71
 -16  -5   6   -1.14    1.14
  16  -5  -6   -1.32    0.87
  16   5  -6    0.46    0.83
 -15  -5   6    0.26    0.99
  15  -5  -6   -1.10    1.00
  15   5  -6    0.28    0.83
 -14  -5   6    0.52    0.92
  14  -5  -6   -0.72    0.81
  14   5  -6   -0.23    0.80
  13  -5  -6    2.26    0.91
 -13  -5   6    1.04    0.96
  13   5  -6    2.90    0.87
  12  -5  -6   10.24    1.25
 -12  -5   6   11.76    1.39
  12   5  -6   13.18    1.25
 -11  -5   6    7.16    1.13
  11  -5  -6    8.74    1.12
  11   5  -6    9.31    1.17
  10  -5  -6   -0.10    0.65
 -10  -5   6    0.57    0.68
  10   5  -6    0.07    0.68
  -9  -5   6   13.75    1.22
   9  -5  -6   13.24    1.13
   9   5  -6   14.26    1.14
   8  -5  -6   16.62    1.12
  -8  -5   6   16.87    1.28
   8   5  -6   14.18    1.09
  -7  -5   6   11.50    0.97
   7  -5  -6   15.71    1.06
   7   5  -6   11.62    0.97
   6  -5  -6    0.47    0.43
  -6  -5   6    0.50    0.42
   6   5  -6    1.25    0.49
   5  -5  -6   29.13    1.24
  -5  -5   6   32.04    1.28
   5  -5  -6   31.26    1.37
   5   5  -6   30.70    1.40
   4  -5  -6   36.99    1.31
  -4  -5   6   35.72    1.32
   4  -5  -6   35.62    1.48
   4   5  -6   37.11    1.16
   4   5  -6   36.56    1.50
   3  -5  -6   14.23    0.73
  -3  -5   6   15.90    0.76
   3  -5  -6   15.54    0.92
   3   5  -6   15.50    0.75
   3   5  -6   14.71    0.94
   2  -5  -6   17.55    0.71
  -2  -5   6   18.17    0.74
   2  -5  -6   17.31    0.95
   2   5  -6   17.59    0.99
   2   5  -6   16.98    0.84
   1  -5  -6    5.15    0.60
  -1  -5   6    4.23    0.38
   1  -5  -6    4.47    0.35
   1   5  -6    5.78    0.66
   1   5  -6    4.36    0.55
   0  -5  -6   82.43    2.03
   0  -5  -6   83.95    2.48
   0   5  -6   83.57    2.59
   0   5  -6   85.54    2.57
  -1  -5  -6   39.65    1.49
  -1  -5  -6   38.97    1.01
  -1   5  -6   43.01    1.68
  -1   5  -6   45.68    1.66
  -2  -5  -6    6.85    0.65
  -2   5  -6    7.04    0.81
  -2   5  -6    7.96    0.84
  -3  -5  -6    1.03    0.48
  -3  -5  -6    0.67    0.35
  -3   5  -6    0.34    0.45
  -3   5  -6    0.97    0.58
  -4  -5  -6    9.81    0.76
  -4  -5  -6    9.72    0.91
   4  -5   6    9.25    0.85
  -4   5  -6    9.80    1.07
  -5  -5  -6    2.66    0.54
   5  -5   6    3.37    0.65
  -5  -5  -6    2.93    0.70
  -5   5  -6    2.61    0.79
   6  -5   6    0.83    0.57
  -6  -5  -6    2.05    0.72
  -6  -5  -6    1.38    0.49
  -6   5  -6   -0.05    0.67
  -7  -5  -6   32.72    1.73
  -7  -5  -6   33.92    1.58
   7  -5   6   35.16    1.63
  -7   5  -6   34.59    1.94
  -8  -5  -6    0.27    0.48
  -8  -5  -6    0.15    0.78
   8  -5   6    0.46    0.63
  -8   5  -6    0.82    0.75
   9  -5   6    4.17    0.90
  -9  -5  -6    3.65    0.78
  -9   5  -6    4.61    1.10
  10  -5   6    1.87    0.78
 -10  -5  -6    2.39    0.77
 -10   5  -6    4.20    1.14
 -11  -5  -6    2.38    0.82
  11  -5   6    2.62    0.88
  12  -5   6    0.95    0.82
 -12  -5  -6    0.87    0.86
  13  -5   6   -0.83    0.89
 -13  -5  -6    0.70    0.81
 -14  -5  -6   -0.94    0.97
 -17  -6   6    0.04    1.36
  17   6  -6    2.03    0.95
  16  -6  -6    1.05    1.10
 -16  -6   6    1.47    1.21
  16   6  -6    2.34    0.97
  15  -6  -6    1.02    1.00
 -15  -6   6    2.57    1.26
  15   6  -6    2.47    0.96
  14  -6  -6    0.68    1.03
 -14  -6   6    0.74    0.95
  14   6  -6    1.91    0.88
 -13  -6   6    5.89    1.17
  13  -6  -6    7.83    1.24
  13   6  -6   11.56    1.38
  12  -6  -6    9.65    1.25
 -12  -6   6    6.84    1.21
  12   6  -6   10.54    1.26
 -11  -6   6    3.99    0.98
  11  -6  -6    4.25    1.01
  11   6  -6    3.20    0.83
  10  -6  -6   -0.01    0.67
 -10  -6   6   -0.73    0.72
  10   6  -6    0.04    0.61
   9  -6  -6    0.95    0.68
  -9  -6   6    0.84    0.71
   9   6  -6    0.42    0.64
  -8  -6   6    1.16    0.64
   8  -6  -6    1.40    0.64
   8   6  -6    0.26    0.60
  -7  -6   6    3.56    0.69
   7   6  -6    3.43    0.71
   6  -6  -6   13.30    0.97
  -6  -6   6   13.35    0.97
   6   6  -6   12.02    1.03
   5  -6  -6    0.70    0.39
  -5  -6   6    1.00    0.40
   5  -6  -6    0.50    0.45
   5   6  -6    0.64    0.47
   4  -6  -6    1.40    0.48
  -4  -6   6    1.63    0.39
   4  -6  -6    1.30    0.41
   4   6  -6    0.95    0.48
   3  -6  -6   18.25    0.85
   3  -6  -6   20.71    1.11
  -3  -6   6   19.24    0.86
   3   6  -6   18.61    0.87
   3   6  -6   18.01    1.05
   2  -6  -6    0.16    0.33
   2  -6  -6    0.02    0.25
  -2  -6   6    0.35    0.25
   2   6  -6    0.44    0.30
   2   6  -6    0.37    0.39
   1  -6  -6    0.96    0.37
   1  -6  -6    2.20    0.31
  -1  -6   6    1.59    0.26
   1   6  -6    1.59    0.44
   1   6  -6    1.70    0.50
   0  -6  -6    1.24    0.23
   0  -6  -6    1.10    0.38
   0   6  -6    0.73    0.44
   0   6  -6    0.84    0.46
  -1  -6  -6    1.54    0.48
  -1  -6  -6    2.09    0.23
  -1   6  -6    2.00    0.55
  -1   6  -6    1.97    0.53
  -2  -6  -6    1.66    0.50
  -2   6  -6    0.61    0.54
  -2   6  -6    0.92    0.56
  -3  -6  -6   14.83    0.98
  -3  -6  -6   14.90    0.96
  -3   6  -6   16.02    1.25
  -3   6  -6   14.58    1.08
  -4  -6  -6    5.92    0.75
   4  -6   6    5.64    0.78
  -4  -6  -6    5.38    0.68
  -4   6  -6    5.66    0.99
  -5  -6  -6    0.28    0.59
  -5  -6  -6    0.43    0.42
   5  -6   6    0.04    0.47
  -5   6  -6    0.34    0.63
  -6  -6  -6   -0.21    0.64
  -6  -6  -6    0.49    0.43
   6  -6   6    0.15    0.51
  -6   6  -6    0.34    0.68
  -7  -6  -6    0.80    0.72
  -7  -6  -6    0.64    0.48
   7  -6   6    1.34    0.67
  -7   6  -6    1.85    0.87
  -8  -6  -6   19.74    1.30
   8  -6   6   19.33    1.40
  -8   6  -6   22.04    1.73
   9  -6   6   -0.20    0.69
  -9  -6  -6    1.38    0.67
 -10  -6  -6   -0.07    0.64
  10  -6   6   -0.26    0.67
 -11  -6  -6    0.56    0.74
  11  -6   6    1.97    0.89
  12  -6   6    2.05    0.96
 -12  -6  -6    1.44    0.87
 -13  -6  -6    0.58    0.93
  13  -6   6   -0.55    0.98
 -16  -7   6   -1.03    1.14
  16   7  -6    0.64    0.71
  15  -7  -6    0.00    1.09
 -15  -7   6    0.89    1.07
  15   7  -6    1.16    0.83
 -14  -7   6    1.62    1.12
  14  -7  -6    2.55    1.08
  14   7  -6    4.51    1.03
 -13  -7   6   16.19    1.73
  13  -7  -6   13.63    1.53
  13   7  -6   18.49    1.58
  12  -7  -6    6.00    1.13
 -12  -7   6    5.30    1.08
  12   7  -6    5.92    1.06
  11  -7  -6    2.36    0.86
 -11  -7   6    1.39    0.86
  11   7  -6    1.74    0.70
 -10  -7   6   -0.56    0.70
  10  -7  -6   -0.12    0.75
  10   7  -6    0.21    0.62
   9  -7  -6   -0.16    0.70
  -9  -7   6    0.93    0.70
   9   7  -6    0.26    0.55
  -8  -7   6    0.66    0.58
   8  -7  -6    1.37    0.74
   8   7  -6    0.71    0.62
   7  -7  -6    0.39    0.53
  -7  -7   6    0.26    0.47
   7   7  -6   -0.14    0.49
  -6  -7   6    6.43    0.72
   6  -7  -6    8.08    0.86
   6   7  -6    8.72    0.99
  -5  -7   6   35.44    1.45
   5  -7  -6   34.81    1.42
   5  -7  -6   35.91    1.60
   5   7  -6   32.51    1.55
   4  -7  -6   61.73    2.22
  -4  -7   6   61.41    1.96
   4  -7  -6   61.67    1.97
   4   7  -6   61.84    2.23
   3  -7  -6    1.66    0.41
  -3  -7   6    2.05    0.39
   3  -7  -6    1.60    0.53
   3   7  -6    1.07    0.50
   2  -7  -6    7.77    0.55
   2  -7  -6    8.01    0.74
  -2  -7   6    8.39    0.58
   2   7  -6    9.91    0.92
  -1  -7   6    3.31    0.34
   1  -7  -6    2.93    0.38
   1  -7  -6    3.63    0.60
   1   7  -6    3.44    0.58
   1   7  -6    2.99    0.63
   0  -7  -6   14.86    0.64
   0  -7  -6   14.17    0.93
   0   7  -6   13.38    0.95
   0   7  -6   13.83    1.01
  -1  -7  -6   58.02    1.59
  -1  -7  -6   56.27    1.96
  -1   7  -6   53.86    2.10
  -1   7  -6   54.10    2.12
  -2  -7  -6   17.59    1.03
  -2   7  -6   17.52    1.16
  -2   7  -6   15.01    1.23
  -3  -7  -6    0.81    0.39
  -3  -7  -6    1.13    0.51
  -3   7  -6    0.54    0.61
  -3   7  -6    0.55    0.57
   4  -7   6    7.60    0.96
  -4  -7  -6    6.02    0.70
  -4  -7  -6    6.32    0.80
  -4   7  -6    6.15    1.04
   5  -7   6   27.58    1.49
  -5  -7  -6   27.32    1.43
  -5  -7  -6   27.42    1.45
  -5   7  -6   26.28    1.76
  -6  -7  -6   27.89    1.44
   6  -7   6   27.68    1.50
  -6  -7  -6   29.21    1.55
  -6   7  -6   26.76    1.76
  -7  -7  -6    3.43    0.64
   7  -7   6    4.06    0.88
   8  -7   6    4.07    0.93
  -8  -7  -6    3.60    0.76
  -9  -7  -6    2.50    0.75
   9  -7   6    2.64    0.83
 -10  -7  -6    0.95    0.69
  10  -7   6    1.56    0.92
 -11  -7  -6    0.56    0.76
  11  -7   6    0.29    0.90
 -12  -7  -6    0.31    0.80
  12  -7   6   -0.40    0.92
  13  -7   6   -0.66    0.91
 -13  -7  -6   -1.13    0.86
 -16  -8   6   -2.30    1.08
  15  -8  -6    0.15    1.06
 -15  -8   6   -2.02    1.06
  15   8  -6    2.38    0.92
 -14  -8   6   -0.24    1.03
  14  -8  -6   -0.38    1.03
  14   8  -6    2.42    0.86
 -13  -8   6   -0.96    0.95
  13  -8  -6    0.05    1.02
  13   8  -6    1.34    0.75
  12  -8  -6    1.36    1.00
 -12  -8   6   -0.03    0.88
  12   8  -6    1.42    0.78
  11  -8  -6    4.72    1.12
 -11  -8   6    5.71    1.10
  11   8  -6    6.23    1.03
 -10  -8   6    0.48    0.66
  10  -8  -6   -0.36    0.77
  10   8  -6    0.72    0.66
   9  -8  -6    1.29    0.78
  -9  -8   6   -0.76    0.62
   9   8  -6    1.14    0.67
  -8  -8   6    2.56    0.72
   8  -8  -6    3.54    0.79
   8   8  -6    2.33    0.76
  -7  -8   6    5.75    0.76
   7  -8  -6    5.98    0.88
   7   8  -6    7.94    0.98
   6  -8  -6   10.29    0.98
  -6  -8   6    7.74    0.82
   6   8  -6    9.37    1.02
   5  -8  -6    0.05    0.52
  -5  -8   6    0.17    0.44
   5  -8  -6   -0.49    0.44
   5   8  -6   -0.11    0.46
   4  -8  -6   18.57    1.04
   4  -8  -6   17.98    1.24
  -4  -8   6   19.67    1.01
   4   8  -6   19.80    1.28
   3  -8  -6    3.46    0.64
  -3  -8   6    3.43    0.47
   3  -8  -6    3.66    0.53
   3   8  -6    3.18    0.66
   2  -8  -6    4.93    0.56
  -2  -8   6    4.34    0.46
   2  -8  -6    3.54    0.62
   2   8  -6    5.18    0.85
   1  -8  -6    6.28    0.74
   1  -8  -6    6.62    0.54
   1   8  -6    6.20    0.86
   0  -8  -6    1.23    0.49
   0  -8  -6    2.31    0.38
   0   8  -6    1.39    0.57
  -1  -8  -6    0.67    0.45
  -1   8  -6    0.70    0.60
  -2  -8  -6    4.05    0.65
  -2   8  -6    4.39    0.81
  -3  -8  -6    6.44    0.81
  -3  -8  -6    5.96    0.72
  -3   8  -6    5.50    0.89
   4  -8   6    8.84    0.98
  -4  -8  -6    6.97    0.84
  -4  -8  -6    7.01    0.85
  -5  -8  -6    2.37    0.58
  -5  -8  -6    2.67    0.68
   5  -8   6    2.76    0.70
  -6  -8  -6    7.32    0.88
   6  -8   6    8.02    1.01
   7  -8   6    1.05    0.65
  -7  -8  -6    2.19    0.58
   8  -8   6    4.65    0.92
  -8  -8  -6    4.11    0.84
  -9  -8  -6    0.49    0.65
   9  -8   6   -0.39    0.64
 -10  -8  -6    0.13    0.72
  10  -8   6    0.33    0.85
 -11  -8  -6   -0.85    0.70
  11  -8   6    0.24    0.93
 -12  -8  -6   -0.29    0.81
  12  -8   6   -0.77    0.97
 -15  -9   6   -0.44    1.17
  14  -9  -6    0.99    1.06
 -14  -9   6    0.02    0.97
  14   9  -6    2.72    0.86
  13  -9  -6    0.99    0.98
 -13  -9   6    3.85    1.19
  13   9  -6    4.19    1.03
  12  -9  -6   -0.49    0.85
 -12  -9   6   -2.10    0.66
  12   9  -6    1.31    0.74
 -11  -9   6    0.99    0.88
  11  -9  -6   -0.47    0.80
  11   9  -6    1.74    0.76
  10  -9  -6    0.45    0.76
 -10  -9   6    1.53    0.75
  10   9  -6    2.01    0.72
   9  -9  -6    3.13    0.84
  -9  -9   6    3.03    0.84
   9   9  -6    3.33    0.78
  -8  -9   6    4.40    0.82
   8  -9  -6    5.25    0.96
   8   9  -6    5.07    0.88
   7  -9  -6    0.53    0.61
  -7  -9   6    0.83    0.60
   7   9  -6    0.79    0.59
  -6  -9   6    2.17    0.62
   6  -9  -6    3.62    0.75
   6   9  -6    2.17    0.66
   5  -9  -6   30.36    1.62
  -5  -9   6   32.99    1.48
   5  -9  -6   32.15    1.48
   5   9  -6   33.24    1.72
  -4  -9   6   64.45    2.05
   4  -9  -6   60.46    2.08
   4  -9  -6   57.65    2.32
   4   9  -6   62.40    2.43
  -3  -9   6   23.04    1.08
   3  -9  -6   23.19    1.35
   3  -9  -6   24.78    1.16
   3   9  -6   24.92    1.44
   2  -9  -6    2.37    0.65
   2  -9  -6    2.37    0.48
   2   9  -6    1.96    0.71
   1  -9  -6    1.74    0.54
   1  -9  -6    1.63    0.42
   1   9  -6    2.42    0.75
   0  -9  -6   15.04    1.03
   0   9  -6   15.75    1.27
  -1  -9  -6   10.59    0.94
  -1   9  -6   12.77    1.28
  -2  -9  -6    6.66    0.84
  -2   9  -6    5.79    0.90
  -3  -9  -6    1.01    0.44
  -3  -9  -6    0.99    0.55
  -3   9  -6    0.14    0.56
  -4  -9  -6    5.64    0.74
  -4  -9  -6    5.96    0.79
   4  -9   6    6.86    0.92
   5  -9   6    6.58    0.98
  -5  -9  -6    3.53    0.66
   6  -9   6   14.57    1.27
  -6  -9  -6   14.33    1.21
  -7  -9  -6    4.04    0.78
   7  -9   6    5.05    0.94
  -8  -9  -6   -0.19    0.53
   8  -9   6   -0.37    0.71
   9  -9   6    3.57    0.97
  -9  -9  -6    2.89    0.78
  10  -9   6    6.72    1.19
 -10  -9  -6    8.74    1.21
 -11  -9  -6    3.37    1.01
  11  -9   6    3.23    1.09
 -12  -9  -6    1.07    0.94
 -14 -10   6   -1.65    1.00
 -13 -10   6   -1.60    0.93
  13 -10  -6   -1.90    0.99
  13  10  -6    0.79    0.71
 -12 -10   6   -0.69    0.89
  12 -10  -6   -2.01    0.89
  12  10  -6    1.31    0.76
  11 -10  -6   -0.39    0.97
 -11 -10   6    1.12    0.90
  11  10  -6    1.88    0.82
  10 -10  -6    1.15    0.84
 -10 -10   6   -0.89    0.73
  10  10  -6    2.08    0.74
  -9 -10   6    0.78    0.74
   9 -10  -6   -0.36    0.69
   9  10  -6    0.81    0.64
  -8 -10   6    0.82    0.69
   8 -10  -6    0.03    0.71
   8  10  -6    0.99    0.61
  -7 -10   6    1.55    0.63
   7 -10  -6    2.03    0.73
   7  10  -6    3.06    0.77
  -6 -10   6    0.15    0.50
   6 -10  -6   -0.07    0.58
   6  10  -6    0.38    0.53
   5 -10  -6   -0.75    0.46
   5 -10  -6    0.39    0.53
  -5 -10   6   -0.51    0.42
   5  10  -6   -0.82    0.37
   4 -10  -6   -0.58    0.45
   4 -10  -6    0.61    0.54
  -4 -10   6   -0.20    0.40
   4  10  -6    0.15    0.56
   3 -10  -6   16.28    1.23
   3 -10  -6   15.05    1.01
   3  10  -6   16.49    1.25
   2 -10  -6    8.83    1.02
   2 -10  -6    9.41    0.76
   2  10  -6   10.49    1.19
   1 -10  -6    1.40    0.57
   1  10  -6    1.02    0.67
   0 -10  -6    1.49    0.57
   0  10  -6    1.56    0.66
  -1 -10  -6    7.41    0.88
  -1  10  -6    7.23    1.03
  -2 -10  -6   10.68    0.97
  -2  10  -6   12.33    1.33
  -3 -10  -6    3.79    0.64
  -3 -10  -6    2.60    0.65
  -3  10  -6    3.83    0.87
   4 -10   6    1.56    0.62
  -4 -10  -6    1.24    0.49
  -5 -10  -6    3.40    0.71
   5 -10   6    4.93    0.90
   6 -10   6    0.18    0.61
  -6 -10  -6   -0.10    0.49
   7 -10   6    2.98    0.91
  -7 -10  -6    1.10    0.63
   8 -10   6    0.13    0.70
  -8 -10  -6    1.11    0.68
   9 -10   6    1.68    0.85
  -9 -10  -6    0.38    0.76
 -10 -10  -6    0.95    0.73
  10 -10   6    0.85    0.88
 -11 -10  -6   -0.26    0.80
 -14 -11   6   -0.25    1.13
  13 -11  -6   -0.05    1.01
 -13 -11   6    0.40    1.13
 -12 -11   6   -1.22    0.87
  12 -11  -6   -0.71    0.93
  12  11  -6    1.71    0.79
  11 -11  -6    0.59    0.92
 -11 -11   6    0.33    0.79
  11  11  -6    1.17    0.75
  10 -11  -6    4.52    1.14
 -10 -11   6    2.85    1.01
  10  11  -6    5.17    0.97
   9 -11  -6    6.68    1.19
  -9 -11   6    6.46    1.07
   9  11  -6    9.94    1.26
   8 -11  -6   11.48    1.28
  -8 -11   6   10.19    1.17
   8  11  -6   11.35    1.34
   7 -11  -6    2.16    0.76
  -7 -11   6    2.69    0.72
   7  11  -6    3.47    0.87
  -6 -11   6    0.51    0.56
   6 -11  -6    1.60    0.71
   6 -11  -6    2.94    0.72
   6  11  -6    0.54    0.55
   5 -11  -6   29.55    1.68
   5 -11  -6   29.79    1.55
  -5 -11   6   31.83    1.53
   5  11  -6   32.70    1.77
   4 -11  -6    4.97    0.76
   4 -11  -6    5.26    0.87
   4  11  -6    5.33    0.88
   3 -11  -6    5.61    0.75
   3 -11  -6    5.68    0.87
   3  11  -6    4.36    0.89
   2 -11  -6    2.78    0.66
   2  11  -6    1.62    0.67
   1 -11  -6    2.36    0.66
   1  11  -6    2.46    0.81
   0 -11  -6    7.38    0.89
   0  11  -6    7.71    1.17
  -1 -11  -6    4.74    0.75
  -1  11  -6    5.76    1.01
  -2 -11  -6    1.04    0.57
  -2 -11  -6    1.16    0.49
  -2  11  -6    2.10    0.74
  -3 -11  -6    7.11    0.89
  -3  11  -6    5.79    1.03
   4 -11   6    2.61    0.79
  -5 -11  -6    2.75    0.67
   5 -11   6    2.79    0.81
  -6 -11  -6    1.29    0.59
   6 -11   6    1.35    0.72
   7 -11   6    0.45    0.79
  -7 -11  -6   -0.78    0.47
   8 -11   6   -0.20    0.78
  -8 -11  -6   -0.52    0.61
  -9 -11  -6    3.83    1.01
   9 -11   6    2.57    1.06
 -10 -11  -6    2.77    0.92
 -13 -12   6   -0.51    1.13
 -12 -12   6   -1.19    0.86
  12 -12  -6   -1.10    0.93
  11 -12  -6   -1.80    0.76
 -11 -12   6   -0.13    0.93
  11  12  -6    0.48    0.71
 -10 -12   6   -0.11    0.79
  10 -12  -6    1.49    1.03
  10  12  -6    1.71    0.78
   9 -12  -6    0.65    0.91
  -9 -12   6    1.29    0.88
   9  12  -6    2.64    0.84
  -8 -12   6    0.36    0.66
   8 -12  -6    1.32    0.82
   8  12  -6    0.65    0.68
   7 -12  -6    1.21    0.74
  -7 -12   6    0.00    0.65
   7  12  -6    1.16    0.67
  -6 -12   6   -0.57    0.85
   6 -12  -6    0.45    0.67
   6 -12  -6    1.23    0.69
   6  12  -6    0.24    0.56
   5 -12  -6    0.64    0.63
   5 -12  -6   -1.00    0.48
   5  12  -6   -0.56    0.55
   4 -12  -6    1.64    0.66
   4 -12  -6    1.79    0.67
   4  12  -6    1.84    0.79
   3 -12  -6    0.51    0.50
   3  12  -6    0.04    0.59
   2 -12  -6    0.57    0.50
   2  12  -6   -0.75    0.55
   1 -12  -6    1.30    0.62
   1  12  -6    1.33    0.69
   0 -12  -6    2.75    0.71
   0  12  -6    2.63    0.81
  -1 -12  -6    8.89    1.04
  -1  12  -6    7.78    1.19
  -2 -12  -6    4.26    0.75
  -2 -12  -6    3.41    0.77
  -2  12  -6    2.53    0.86
  -3 -12  -6    0.03    0.47
  -3  12  -6    0.07    0.64
  -4 -12  -6    0.52    0.56
   4 -12   6    1.92    0.73
  -5 -12  -6    0.30    0.50
   5 -12   6    1.05    0.71
  -6 -12  -6    3.19    0.76
   6 -12   6    6.08    1.15
  -7 -12  -6    1.47    0.75
   7 -12   6    0.62    0.77
  -8 -12  -6    0.63    0.66
   8 -12   6    1.45    0.93
  -9 -12  -6   -0.19    0.73
 -11 -13   6   -1.45    0.86
  11 -13  -6   -1.77    0.82
  10 -13  -6    3.43    1.09
 -10 -13   6    1.88    1.01
  10  13  -6    4.48    1.08
  -9 -13   6    1.76    0.89
   9 -13  -6    1.56    0.92
   9  13  -6    3.02    0.92
  -8 -13   6    1.39    0.83
   8 -13  -6    4.36    1.09
   8  13  -6    6.99    1.20
   7 -13  -6    0.22    0.79
   7 -13  -6    2.16    0.69
   7  13  -6    1.87    0.74
   6 -13  -6    0.89    0.60
   6 -13  -6   -0.81    0.63
   6  13  -6    0.07    0.58
   5 -13  -6    7.70    1.12
   5  13  -6    5.95    1.05
   4 -13  -6    7.06    1.10
   4  13  -6    7.60    1.21
   3 -13  -6    2.89    0.84
   3  13  -6    2.76    0.84
   2 -13  -6    0.17    0.52
   2  13  -6    0.04    0.60
   1 -13  -6    1.60    0.64
   1  13  -6    2.32    0.89
   0 -13  -6    2.71    0.75
   0  13  -6    3.08    0.93
  -1 -13  -6    5.60    0.85
  -1 -13  -6    4.18    0.86
  -1  13  -6    4.37    1.04
  -2 -13  -6    1.54    0.59
  -2  13  -6    1.21    0.76
  -3 -13  -6    0.31    0.45
  -3  13  -6   -0.56    0.61
  -4 -13  -6    1.83    0.63
   4 -13   6    2.16    0.83
   5 -13   6    6.32    1.12
  -5 -13  -6    4.80    0.94
   6 -13   6    7.62    1.22
  -6 -13  -6    6.48    0.99
   7 -13   6    0.98    0.81
  -7 -13  -6    1.29    0.76
  -8 -13  -6   -0.65    0.67
 -10 -14   6   -1.03    0.88
  10 -14  -6   -1.28    0.95
   9 -14  -6   -0.27    0.92
   9  14  -6    1.68    1.24
   8 -14  -6   -0.33    0.85
   8 -14  -6    2.63    0.76
   8  14  -6    0.71    0.78
   7 -14  -6   -0.24    0.81
   7 -14  -6    2.20    0.75
   7  14  -6    0.96    0.77
   6 -14  -6    2.43    0.73
   6  14  -6    0.19    0.76
   5 -14  -6    4.36    0.89
   5  14  -6    1.52    0.82
   4 -14  -6    1.74    0.73
   4  14  -6    0.95    0.81
   3 -14  -6    1.23    0.65
   3  14  -6    0.78    0.76
   2 -14  -6    1.89    0.78
   2  14  -6    1.76    0.80
   1 -14  -6    0.88    0.64
   1  14  -6    0.34    0.74
   0 -14  -6    0.17    0.61
   0  14  -6    0.00    0.73
  -1 -14  -6    0.88    0.52
  -1  14  -6    1.53    0.83
  -2 -14  -6    1.12    0.56
  -2  14  -6    0.29    0.79
  -3 -14  -6    0.83    0.53
   3 -14   6    1.68    0.79
  -4 -14  -6   -0.02    0.56
   4 -14   6    1.60    0.71
  -5 -14  -6    0.15    0.56
   5 -14   6    0.52    0.75
  -6 -14  -6    0.20    0.64
  -7 -14  -6    0.99    0.81
   8 -15  -6    2.85    0.78
   7 -15  -6    3.67    0.86
   7  15  -6    1.67    0.88
   6 -15  -6    1.22    0.64
   6  15  -6   -0.16    0.71
   5 -15  -6    5.24    1.03
   5  15  -6    4.58    1.11
   4 -15  -6    5.49    1.01
   4  15  -6    4.35    1.08
   3 -15  -6    2.50    0.85
   3  15  -6    1.44    0.89
   2 -15  -6    1.17    0.70
   2  15  -6    0.83    0.83
   1 -15  -6    0.89    0.75
   1  15  -6    0.56    0.83
   0 -15  -6    2.74    0.64
   0  15  -6    0.07    0.73
  -1 -15  -6    5.14    0.81
  -1  15  -6    4.61    1.18
  -2 -15  -6    1.37    0.56
  -2  15  -6    0.88    0.86
   3 -15   6    1.75    0.69
  -3 -15  -6    1.10    0.64
  -4 -15  -6    2.07    0.81
  -5 -15  -6    4.15    0.96
   6 -16  -6    3.69    0.89
   6  16  -6    2.49    0.97
   5 -16  -6    1.58    0.76
   5  16  -6   -0.35    0.77
   4 -16  -6    0.94    0.69
   4  16  -6   -0.83    0.63
   3 -16  -6    1.79    0.84
   3  16  -6    0.07    0.79
   2 -16  -6    1.38    0.80
   2  16  -6   -0.04    0.84
   1 -16  -6    1.12    0.49
   1  16  -6   -0.21    0.82
   0 -16  -6    2.45    0.63
   0  16  -6   -0.60    0.80
  -1 -16  -6    1.85    0.62
  -1  16  -6    1.15    1.51
  -2 -16  -6    0.73    0.60
  -3 -16  -6    1.22    0.71
  17   0  -7    0.81    0.99
  16   0  -7   -0.40    0.80
  15   0  -7    0.38    0.81
  14   0  -7   -0.39    0.82
  13   0  -7    0.47    0.75
  12   0  -7    0.02    0.71
  11   0  -7    0.33    0.70
  10   0  -7   -0.35    0.33
  10   0  -7   -0.40    0.62
   9   0  -7   -0.47    0.62
   9   0  -7   -0.08    0.30
   8   0  -7   -0.11    0.23
   8   0  -7    0.09    0.50
   7   0  -7   -0.04    0.22
   7   0  -7    0.05    0.44
   6   0  -7    0.21    0.24
   6   0  -7    0.21    0.39
   5   0  -7   -0.14    0.37
   5   0  -7   -0.10    0.22
   4   0  -7   -0.21    0.27
   4   0  -7   -0.11    0.24
   3   0  -7   -0.02    0.25
   3   0  -7    0.14    0.28
   2   0  -7   -0.15    0.25
   2   0  -7    0.21    0.28
   1   0  -7    0.07    0.32
   1   0  -7   -0.10    0.22
   0   0  -7    0.47    0.40
   0   0  -7   -0.17    0.20
  -1   0  -7   -0.43    0.21
  -1   0  -7    0.13    0.37
  -2   0  -7    0.99    0.43
   2   0   7   -0.63    0.21
  -3   0  -7   -0.08    0.19
   3   0   7   -0.07    0.23
  -3   0  -7    0.15    0.45
  -4   0  -7   -0.29    0.21
  -4   0  -7   -0.12    0.56
   4   0   7   -0.56    0.25
   5   0   7    0.24    0.33
  -5   0  -7    0.28    0.31
  -5   0  -7    0.90    0.66
   6   0   7   -0.16    0.38
  -6   0  -7    0.07    0.61
  -6   0  -7   -0.28    0.32
  -7   0  -7    0.01    0.73
   7   0   7   -0.29    0.46
  -7   0  -7    0.46    0.42
  -8   0  -7   -0.59    0.74
  -8   0  -7   -0.89    0.43
  -9   0  -7   -0.78    0.70
 -10   0  -7    1.24    0.86
 -11   0  -7    1.04    0.89
 -12   0  -7    0.93    0.88
  17  -1  -7    3.01    1.19
  17   1  -7    3.40    1.04
  16  -1  -7    1.54    1.02
  16   1  -7    0.26    0.82
  15  -1  -7    0.88    0.87
  15   1  -7    1.28    0.83
  14  -1  -7    2.52    1.00
  14   1  -7    3.55    0.96
  13  -1  -7   11.84    1.37
  13   1  -7   12.59    1.41
  12  -1  -7   12.44    1.33
  12   1  -7   10.54    1.24
  11  -1  -7    1.78    0.85
  11   1  -7    2.07    0.79
  10  -1  -7    1.53    0.72
  10   1  -7    0.31    0.64
   9  -1  -7   53.09    2.03
   9  -1  -7   52.94    1.79
   9   1  -7   51.63    1.61
   9   1  -7   51.17    2.02
   8  -1  -7   22.74    1.22
   8  -1  -7   20.38    0.99
   8   1  -7   22.07    1.21
   8   1  -7   22.34    0.89
   7  -1  -7   39.91    1.43
   7  -1  -7   39.54    1.56
   7   1  -7   41.63    1.61
   7   1  -7   41.12    1.28
   6  -1  -7    0.54    0.29
   6  -1  -7    0.43    0.44
   6   1  -7    0.59    0.25
   6   1  -7    0.55    0.41
   5  -1  -7    0.48    0.28
   5  -1  -7    0.22    0.35
   5   1  -7    0.17    0.24
   5   1  -7   -0.20    0.33
   4  -1  -7   27.45    1.05
   4  -1  -7   28.18    1.07
   4   1  -7   27.73    0.99
   4   1  -7   27.80    1.11
   3  -1  -7  102.46    2.64
   3  -1  -7   96.49    2.71
   3   1  -7  103.60    2.68
   3   1  -7  103.07    2.73
   2  -1  -7   51.31    1.60
   2  -1  -7   49.41    1.43
   2   1  -7   51.10    1.59
   2   1  -7   50.99    1.56
   1  -1  -7    0.78    0.37
   1  -1  -7    0.44    0.22
   1   1  -7    0.74    0.37
   1   1  -7    0.54    0.28
   0  -1  -7    1.09    0.22
   0  -1  -7    1.39    0.43
   0   1  -7    1.55    0.32
   0   1  -7    1.11    0.44
  -1  -1  -7    9.19    0.72
  -1  -1  -7    8.51    0.42
  -1   1  -7    8.66    0.56
  -1   1  -7    8.99    0.75
  -2  -1  -7   60.96    2.04
  -2   1  -7   58.12    1.58
  -2   1  -7   59.26    1.78
   2   1   7   59.55    1.55
  -2   1  -7   59.40    2.06
   3  -1   7   -0.02    0.27
  -3  -1  -7    0.34    0.52
  -3  -1  -7   -0.12    0.20
  -3   1  -7   -0.04    0.18
  -3   1  -7   -0.13    0.50
   3   1   7    0.03    0.20
  -4  -1  -7    4.65    0.74
  -4  -1  -7    3.28    0.42
   4  -1   7    5.19    0.54
  -4   1  -7    4.20    0.73
  -4   1  -7    4.56    0.42
   4   1   7    4.60    0.43
  -5  -1  -7   51.86    1.70
  -5  -1  -7   50.78    2.03
   5  -1   7   51.95    1.69
   5   1   7   52.21    1.59
  -5   1  -7   52.45    2.10
  -5   1  -7   50.00    1.59
  -6  -1  -7   24.34    1.44
  -6  -1  -7   23.48    1.12
   6  -1   7   22.52    1.13
  -6   1  -7   23.29    1.49
   6   1   7   24.25    1.07
  -6   1  -7   24.41    1.10
  -7  -1  -7   16.55    1.39
   7  -1   7   16.84    1.05
  -7  -1  -7   15.13    0.99
  -7   1  -7   16.21    1.44
  -7   1  -7   15.55    1.01
  -8  -1  -7    7.86    1.16
  -8  -1  -7    7.22    0.81
   8  -1   7    8.22    0.91
  -8   1  -7    8.30    1.20
   9  -1   7    0.00    0.93
  -9  -1  -7    0.51    0.76
  -9  -1  -7   -1.34    0.47
  -9   1  -7   -0.64    0.76
 -10  -1  -7    0.41    0.80
 -10  -1  -7   -0.40    0.61
 -10   1  -7    0.32    0.74
 -11  -1  -7    2.04    0.96
 -11   1  -7    3.04    1.04
 -12   1  -7    2.75    1.01
 -13   1  -7    2.08    1.11
  17  -2  -7   -0.07    1.04
  17   2  -7    0.99    0.90
  16  -2  -7    1.53    1.04
  16   2  -7    0.76    0.90
  15  -2  -7    0.10    0.93
  15   2  -7    0.93    0.84
  14  -2  -7   -0.51    0.75
  14   2  -7    1.13    0.89
  13  -2  -7    0.42    0.85
  13   2  -7   -0.32    0.65
  12  -2  -7    0.61    0.74
  12   2  -7    0.43    0.81
  11  -2  -7    3.19    0.85
  11   2  -7    2.07    0.82
  10  -2  -7    0.93    0.69
  10   2  -7    0.54    0.68
   9  -2  -7    3.29    0.77
   9   2  -7   -0.58    0.54
   8  -2  -7    4.99    0.63
   8  -2  -7    2.98    0.67
   8   2  -7    4.01    0.73
   8   2  -7    3.83    0.40
   7  -2  -7    1.00    0.36
   7  -2  -7    1.98    0.60
   7   2  -7    1.39    0.52
   7   2  -7    1.32    0.28
   6  -2  -7    1.80    0.52
   6  -2  -7    1.27    0.37
   6   2  -7    1.44    0.47
   6   2  -7    1.95    0.31
   5  -2  -7    0.34    0.30
   5  -2  -7    0.28    0.35
   5   2  -7    0.63    0.41
   5   2  -7    0.50    0.27
   4  -2  -7    3.59    0.47
   4  -2  -7    3.75    0.47
   4   2  -7    4.03    0.43
   4   2  -7    3.50    0.51
   3  -2  -7    3.82    0.46
   3  -2  -7    4.89    0.46
   3   2  -7    3.94    0.49
   3   2  -7    4.79    0.49
   2  -2  -7   21.79    0.95
   2  -2  -7   22.40    0.77
   2   2  -7   21.28    0.96
   2   2  -7   21.27    0.92
   1  -2  -7    2.28    0.42
   1  -2  -7    1.80    0.25
   1   2  -7    2.12    0.44
   1   2  -7    2.27    0.39
   0  -2  -7   12.47    0.80
   0  -2  -7   12.14    0.42
   0   2  -7   13.03    0.73
   0   2  -7   13.46    0.86
  -1  -2  -7   33.14    1.35
   1   2   7   34.00    0.83
  -1   2  -7   32.82    1.22
  -1   2  -7   34.01    1.42
  -2  -2  -7   17.82    0.99
   2   2   7   17.61    0.53
  -2   2  -7   18.26    1.06
  -2   2  -7   16.74    0.59
  -2   2  -7   16.99    0.88
  -3  -2  -7    0.91    0.53
   3  -2   7    0.43    0.32
   3   2   7    0.31    0.19
  -3   2  -7   -0.06    0.17
  -3   2  -7    0.38    0.49
  -4  -2  -7    0.11    0.28
  -4  -2  -7    0.59    0.60
   4  -2   7    0.39    0.36
  -4   2  -7    0.51    0.55
   4   2   7    0.18    0.25
  -4   2  -7    0.20    0.23
  -5  -2  -7    0.75    0.33
   5  -2   7    0.65    0.42
  -5  -2  -7   -0.02    0.60
  -5   2  -7    0.82    0.63
   5   2   7    0.52    0.36
  -5   2  -7   -0.04    0.29
  -6  -2  -7    0.54    0.71
   6  -2   7   -0.01    0.42
  -6  -2  -7    0.53    0.38
  -6   2  -7    0.24    0.63
  -7  -2  -7    5.97    0.74
   7  -2   7    5.60    0.77
  -7  -2  -7    5.68    0.97
  -7   2  -7    4.83    0.98
  -8  -2  -7    0.36    0.47
  -8  -2  -7    0.41    0.73
   8  -2   7    0.35    0.55
  -8   2  -7    0.37    0.71
  -9  -2  -7    1.60    0.78
  -9  -2  -7   -0.45    0.47
   9  -2   7   -0.66    0.54
  -9   2  -7    0.24    0.71
  10  -2   7   -0.66    0.88
 -10  -2  -7    1.13    0.66
 -10  -2  -7    0.07    0.78
 -10   2  -7    1.24    0.93
 -11  -2  -7   -0.43    0.66
 -11   2  -7    0.34    0.89
 -12   2  -7    1.25    0.97
 -13   2  -7    0.96    0.91
  17  -3  -7    0.37    1.11
  17   3  -7    2.56    1.07
  16  -3  -7   -0.49    0.97
  16   3  -7   -0.36    0.74
  15  -3  -7    0.24    0.98
  15   3  -7    0.18    0.90
  14  -3  -7    1.84    1.00
  14   3  -7    1.85    0.88
  13  -3  -7    5.59    1.05
  13   3  -7    6.06    1.06
  12  -3  -7    3.71    0.91
  12   3  -7    4.85    0.99
 -11  -3   7    4.80    1.07
  11  -3  -7    6.99    1.10
  11   3  -7    5.47    1.04
 -10  -3   7   -0.16    0.75
  10  -3  -7    0.17    0.67
  10   3  -7   -0.06    0.60
  -9  -3   7    1.81    0.72
   9  -3  -7    3.85    0.78
   9   3  -7    1.24    0.71
   8  -3  -7   10.88    0.96
  -8  -3   7    9.43    0.94
   8   3  -7   12.66    1.09
   7  -3  -7   22.23    1.19
  -7  -3   7   22.47    1.28
   7  -3  -7   20.42    1.10
   7   3  -7   22.01    1.24
   7   3  -7   20.70    0.82
   6  -3  -7   13.99    0.84
   6  -3  -7   12.38    0.89
  -6  -3   7   13.82    0.93
   6   3  -7   14.56    0.90
   6   3  -7   12.87    0.59
   5  -3  -7   15.66    0.86
   5  -3  -7   14.94    0.87
   5   3  -7   16.06    0.91
   5   3  -7   15.43    0.69
   4  -3  -7   55.69    1.84
   4  -3  -7   55.54    1.70
   4   3  -7   57.07    1.63
   4   3  -7   56.53    1.87
   3  -3  -7   26.93    0.98
   3  -3  -7   26.77    1.11
   3   3  -7   27.03    1.03
   3   3  -7   27.74    1.17
   2  -3  -7   15.39    0.63
   2  -3  -7   15.62    0.83
   2   3  -7   15.88    0.82
   2   3  -7   16.20    0.88
   1  -3  -7    1.44    0.22
   1  -3  -7    0.85    0.34
   1   3  -7    1.38    0.37
   1   3  -7    1.21    0.38
   0  -3  -7   15.57    0.85
   0   3  -7   15.71    0.84
   0   3  -7   14.98    0.93
  -1  -3  -7    0.90    0.41
  -1   3  -7    1.52    0.47
  -1   3  -7    0.66    0.40
  -2  -3  -7   31.17    1.35
  -2   3  -7   30.12    1.27
  -2   3  -7   30.20    1.41
  -3  -3  -7    9.55    0.67
  -3  -3  -7    8.98    0.82
  -3   3  -7    8.72    0.90
  -3   3  -7    8.31    0.77
   3   3   7    9.33    0.35
   4  -3   7    0.95    0.44
  -4  -3  -7    0.87    0.34
  -4  -3  -7    1.69    0.64
  -4   3  -7    1.97    0.69
  -5  -3  -7    5.26    0.60
   5  -3   7    6.07    0.72
  -5  -3  -7    6.37    0.89
  -5   3  -7    6.91    0.97
  -6  -3  -7    2.09    0.52
  -6  -3  -7    2.77    0.83
   6  -3   7    2.32    0.55
  -6   3  -7    2.33    0.86
   7  -3   7   12.73    1.04
  -7  -3  -7   11.62    1.00
  -7  -3  -7   14.54    1.30
  -7   3  -7   13.08    1.37
  -8  -3  -7    1.67    0.80
   8  -3   7    1.62    0.60
  -8  -3  -7    1.78    0.58
  -8   3  -7    1.65    0.90
  -9  -3  -7    0.03    0.76
   9  -3   7    0.37    0.55
  -9  -3  -7    0.00    0.53
  -9   3  -7   -0.20    0.71
  10  -3   7    4.55    0.92
 -10  -3  -7    3.48    0.79
 -10   3  -7    5.24    1.20
 -11  -3  -7    3.64    0.89
 -11   3  -7    6.94    1.28
 -12  -3  -7    0.51    0.83
 -12   3  -7    3.51    1.15
 -13   3  -7    1.56    0.96
  17   4  -7    0.02    0.86
  16  -4  -7   -0.56    0.90
  16   4  -7    1.76    0.97
  15  -4  -7    0.85    0.95
  15   4  -7    0.16    0.78
  14  -4  -7    2.29    1.06
 -14  -4   7    3.13    1.18
  14   4  -7    4.67    1.04
  13  -4  -7    4.20    1.09
 -13  -4   7    2.20    0.96
  13   4  -7    2.69    0.99
 -12  -4   7    0.22    0.88
  12  -4  -7   -0.52    0.79
  12   4  -7    0.36    0.70
 -11  -4   7    0.66    0.77
  11  -4  -7    1.28    0.78
  11   4  -7    1.38    0.78
  10  -4  -7    1.73    0.76
 -10  -4   7    1.12    0.74
  10   4  -7    0.53    0.70
  -9  -4   7    1.01    0.69
   9  -4  -7    0.99    0.67
   9   4  -7    1.18    0.65
   8  -4  -7    2.04    0.64
  -8  -4   7    2.62    0.73
   8   4  -7    2.10    0.69
   7  -4  -7    1.77    0.60
   7  -4  -7    0.58    0.48
  -7  -4   7    1.05    0.58
   7   4  -7    0.55    0.48
  -6  -4   7    1.67    0.47
   6  -4  -7    2.44    0.56
   6  -4  -7    2.09    0.51
   6   4  -7    1.89    0.53
  -5  -4   7    0.51    0.41
   5  -4  -7    0.81    0.39
   5  -4  -7    1.97    0.47
   5   4  -7    1.51    0.30
   5   4  -7    1.35    0.47
   4  -4  -7    0.92    0.37
   4  -4  -7    1.01    0.40
  -4  -4   7    0.99    0.37
   4   4  -7    0.82    0.30
   4   4  -7    1.17    0.46
   3  -4  -7    0.61    0.33
   3  -4  -7    0.93    0.33
   3   4  -7    0.86    0.33
   3   4  -7    0.79    0.39
   2  -4  -7    1.99    0.45
   2  -4  -7    1.71    0.30
   2   4  -7    1.65    0.41
   2   4  -7    2.12    0.46
   1  -4  -7   48.84    1.68
   1  -4  -7   48.30    1.27
   1   4  -7   47.34    1.67
   1   4  -7   47.60    1.70
   0  -4  -7   44.43    1.55
   0   4  -7   41.21    1.59
   0   4  -7   41.71    1.58
  -1  -4  -7   17.27    0.94
  -1   4  -7   17.07    0.97
  -1   4  -7   17.48    1.09
  -2  -4  -7    8.28    0.81
  -2   4  -7    8.12    0.92
  -2   4  -7    7.62    0.80
  -3  -4  -7    6.18    0.61
  -3  -4  -7    6.14    0.72
  -3   4  -7    6.21    0.75
  -3   4  -7    7.15    0.92
   4  -4   7    2.78    0.57
  -4  -4  -7    2.27    0.43
  -4  -4  -7    3.91    0.68
  -4   4  -7    1.94    0.72
   5  -4   7   -0.26    0.40
  -5  -4  -7    0.22    0.64
  -5  -4  -7    0.33    0.33
  -5   4  -7   -0.21    0.57
   6  -4   7    3.92    0.72
  -6  -4  -7    3.72    0.61
  -6  -4  -7    4.03    0.84
  -6   4  -7    3.69    0.87
   7  -4   7    2.75    0.66
  -7  -4  -7    3.45    0.63
  -7  -4  -7    4.75    0.94
  -7   4  -7    1.85    0.82
  -8  -4  -7    2.43    0.86
  -8  -4  -7    1.52    0.61
   8  -4   7    1.27    0.66
  -8   4  -7    2.37    0.85
   9  -4   7    0.29    0.67
  -9  -4  -7   -0.24    0.53
  -9  -4  -7   -0.25    0.89
  -9   4  -7    1.39    0.90
 -10  -4  -7    0.74    0.67
  10  -4   7    1.36    0.80
 -10   4  -7    1.05    1.01
 -11  -4  -7   -0.61    0.65
  11  -4   7   -0.21    0.78
 -11   4  -7    0.07    0.93
 -12  -4  -7    0.31    0.80
 -12   4  -7    1.32    0.94
 -13  -4  -7   -1.90    0.78
  17   5  -7    2.17    0.95
  16  -5  -7    0.80    1.14
  16   5  -7    1.95    0.98
  15  -5  -7   -1.69    0.93
 -15  -5   7   -1.83    1.05
  15   5  -7    0.22    0.82
 -14  -5   7   -0.67    0.98
  14  -5  -7   -0.39    0.85
  14   5  -7    1.03    0.79
  13  -5  -7   -0.33    0.77
 -13  -5   7   -0.86    0.90
  13   5  -7    1.01    0.84
 -12  -5   7   -0.20    0.76
  12  -5  -7   -1.11    0.79
  12   5  -7    0.54    0.73
  11  -5  -7    0.48    0.80
 -11  -5   7   -0.24    0.80
  11   5  -7   -0.71    0.55
  10  -5  -7    2.31    0.81
 -10  -5   7    1.38    0.75
  10   5  -7    1.08    0.71
  -9  -5   7    2.44    0.79
   9  -5  -7    2.75    0.75
   9   5  -7    1.75    0.72
  -8  -5   7    3.14    0.75
   8  -5  -7    2.76    0.69
   8   5  -7    2.47    0.68
   7  -5  -7    3.05    0.68
  -7  -5   7    3.19    0.63
   7   5  -7    2.99    0.72
  -6  -5   7    0.23    0.46
   6  -5  -7   -0.61    0.42
   6  -5  -7    0.06    0.45
   6   5  -7   -0.52    0.40
  -5  -5   7    4.54    0.59
   5  -5  -7    5.76    0.64
   5  -5  -7    5.95    0.74
   5   5  -7    5.31    0.73
   5   5  -7    5.47    0.43
   4  -5  -7   71.09    2.30
   4  -5  -7   68.30    2.04
  -4  -5   7   70.76    2.08
   4   5  -7   70.46    2.32
   4   5  -7   66.33    1.94
   3  -5  -7   30.94    1.32
  -3  -5   7   31.42    1.13
   3  -5  -7   30.64    1.10
   3   5  -7   30.30    1.35
   3   5  -7   30.03    1.16
   2  -5  -7  116.90    2.91
   2  -5  -7  115.34    3.29
   2   5  -7  118.19    3.36
   2   5  -7  114.77    3.18
   1  -5  -7    0.00    0.21
   1  -5  -7    0.54    0.38
   1   5  -7   -0.30    0.35
   1   5  -7    0.01    0.34
   0  -5  -7   -0.07    0.15
   0  -5  -7   -0.44    0.35
   0   5  -7    0.55    0.45
   0   5  -7    0.84    0.44
  -1  -5  -7    9.18    0.75
  -1   5  -7    8.73    0.80
  -1   5  -7    8.06    0.82
  -2  -5  -7   10.57    0.88
  -2   5  -7   10.96    0.88
  -2   5  -7   11.59    1.06
  -3  -5  -7   34.56    1.42
  -3  -5  -7   33.35    1.49
  -3   5  -7   35.09    1.68
  -3   5  -7   31.74    1.55
   4  -5   7    0.57    0.46
  -4  -5  -7    0.62    0.36
  -4  -5  -7    1.25    0.58
  -4   5  -7    0.44    0.60
   5  -5   7   -0.29    0.43
  -5  -5  -7    0.25    0.41
  -5  -5  -7   -0.03    0.59
  -5   5  -7   -0.27    0.61
   6  -5   7    0.50    0.58
  -6  -5  -7   -0.10    0.42
  -6  -5  -7    0.72    0.72
  -6   5  -7   -0.15    0.70
   7  -5   7    5.28    0.87
  -7  -5  -7    2.97    0.63
  -7  -5  -7    3.40    0.88
  -7   5  -7    4.37    0.99
   8  -5   7    0.73    0.59
  -8  -5  -7    4.32    0.91
  -8  -5  -7    2.37    0.63
  -8   5  -7    0.72    0.81
   9  -5   7    0.02    0.59
  -9  -5  -7   -0.37    0.59
  -9   5  -7    0.19    0.87
  10  -5   7    2.31    0.88
 -10  -5  -7    2.13    0.74
 -10   5  -7    3.65    1.09
  11  -5   7    3.19    0.99
 -11  -5  -7    2.81    0.78
 -11   5  -7    4.78    1.18
 -12  -5  -7    0.95    0.85
  12  -5   7   -0.58    0.87
 -13  -5  -7   -1.04    0.84
  17   6  -7    1.99    1.03
 -16  -6   7   -0.78    1.02
  16  -6  -7   -0.72    0.99
  16   6  -7    2.87    1.00
  15  -6  -7    0.10    0.96
 -15  -6   7   -2.27    0.87
  15   6  -7   -0.21    0.75
  14  -6  -7    0.33    0.92
 -14  -6   7    1.15    0.98
  14   6  -7    2.06    0.84
 -13  -6   7    0.59    0.90
  13  -6  -7   -0.03    0.96
  13   6  -7    1.68    0.82
 -12  -6   7    4.39    1.05
  12  -6  -7    4.90    1.05
  12   6  -7    4.47    0.94
 -11  -6   7   17.86    1.53
  11  -6  -7   16.78    1.49
  11   6  -7   16.49    1.34
 -10  -6   7   20.43    1.65
  10  -6  -7   20.66    1.41
  10   6  -7   20.64    1.47
   9  -6  -7   19.33    1.31
  -9  -6   7   19.47    1.40
   9   6  -7   19.88    1.42
  -8  -6   7    6.63    0.92
   8  -6  -7    6.70    0.94
   8   6  -7    6.22    0.92
  -7  -6   7    1.28    0.60
   7  -6  -7    1.57    0.59
   7   6  -7    0.50    0.53
   6  -6  -7    5.60    0.73
  -6  -6   7    5.32    0.70
   6  -6  -7    6.20    0.88
   6   6  -7    5.48    0.81
   5  -6  -7   40.62    1.69
   5  -6  -7   38.75    1.50
  -5  -6   7   41.84    1.55
   5   6  -7   39.11    1.68
   4  -6  -7    0.21    0.41
   4  -6  -7   -0.30    0.35
  -4  -6   7   -0.15    0.35
   4   6  -7    0.60    0.28
   4   6  -7   -0.43    0.36
   3  -6  -7   10.76    0.83
  -3  -6   7   10.54    0.69
   3  -6  -7   10.50    0.66
   3   6  -7    9.68    0.70
   3   6  -7   10.10    0.86
  -2  -6   7   14.51    0.71
   2  -6  -7   13.77    0.90
   2  -6  -7   13.40    0.67
   2   6  -7   13.57    0.86
   2   6  -7   13.90    0.96
  -1  -6   7    1.50    0.28
   1  -6  -7    1.36    0.28
   1  -6  -7    0.86    0.44
   1   6  -7    1.17    0.46
   1   6  -7    1.14    0.52
   0  -6  -7    0.63    0.40
   0  -6  -7    0.52    0.20
   0   6  -7    1.06    0.48
   0   6  -7    0.53    0.47
  -1  -6  -7    0.64    0.41
  -1   6  -7    0.60    0.53
  -1   6  -7    0.48    0.49
  -2  -6  -7    4.09    0.67
  -2   6  -7    5.32    0.86
  -2   6  -7    3.96    0.72
  -3  -6  -7   11.93    0.99
  -3  -6  -7   11.16    0.90
  -3   6  -7   12.87    1.24
  -3   6  -7   10.89    1.01
  -4  -6  -7   15.29    1.12
  -4  -6  -7   13.70    0.99
   4  -6   7   13.15    1.06
  -4   6  -7   14.34    1.27
  -5  -6  -7    6.63    0.91
   5  -6   7    7.54    0.90
  -5  -6  -7    9.17    0.88
  -5   6  -7    6.80    1.06
   6  -6   7   34.23    1.68
  -6  -6  -7   40.39    1.90
  -6  -6  -7   38.80    1.69
  -6   6  -7   37.44    2.04
  -7  -6  -7    3.04    0.63
  -7  -6  -7    3.44    0.89
   7  -6   7    3.25    0.76
  -7   6  -7    3.10    0.92
   8  -6   7    4.65    0.88
  -8  -6  -7    4.29    0.73
  -8   6  -7    3.96    1.03
   9  -6   7    0.43    0.69
  -9  -6  -7   -0.04    0.61
  -9   6  -7    0.45    0.89
  10  -6   7    0.22    0.80
 -10  -6  -7   -0.11    0.64
 -11  -6  -7   -0.18    0.71
  11  -6   7   -0.55    0.83
  12  -6   7   -0.53    0.91
 -12  -6  -7   -1.81    0.71
  13  -6   7   -0.25    1.04
 -13  -6  -7   -1.53    0.82
 -16  -7   7   -0.56    1.09
  16   7  -7    1.78    0.92
  15  -7  -7    0.85    1.17
 -15  -7   7    0.20    1.15
  15   7  -7    2.08    0.87
  14  -7  -7   -0.62    0.88
 -14  -7   7   -0.71    1.03
  14   7  -7    0.59    0.77
  13  -7  -7    2.91    1.13
 -13  -7   7    2.76    1.13
  13   7  -7    2.86    0.87
  12  -7  -7    3.22    1.01
 -12  -7   7    2.49    1.04
  12   7  -7    5.26    1.08
  11  -7  -7    2.96    0.89
 -11  -7   7    2.88    0.98
  11   7  -7    3.78    0.92
  10  -7  -7    2.30    0.89
 -10  -7   7    1.39    0.84
  10   7  -7    2.01    0.72
  -9  -7   7    2.70    0.81
   9  -7  -7    1.94    0.75
   9   7  -7    1.73    0.71
   8  -7  -7    1.66    0.75
  -8  -7   7    2.01    0.66
   8   7  -7    2.10    0.68
  -7  -7   7    4.37    0.76
   7  -7  -7    4.30    0.80
   7   7  -7    4.46    0.87
   6  -7  -7   -0.41    0.42
   6  -7  -7   -0.73    0.46
  -6  -7   7    0.33    0.49
   6   7  -7    0.04    0.50
   5  -7  -7    1.25    0.61
  -5  -7   7    2.50    0.53
   5  -7  -7    1.80    0.55
   5   7  -7    1.71    0.58
   4  -7  -7   15.62    0.90
   4  -7  -7   16.81    1.14
  -4  -7   7   16.95    0.95
   4   7  -7   16.42    1.11
   3  -7  -7   14.27    1.00
  -3  -7   7   16.34    0.86
   3  -7  -7   16.19    0.81
   3   7  -7   15.77    1.09
   3   7  -7   15.69    0.90
   2  -7  -7   12.13    0.94
  -2  -7   7   10.84    0.67
   2  -7  -7   10.55    0.65
   2   7  -7   10.51    0.94
   2   7  -7   10.41    0.82
   1  -7  -7   -0.16    0.36
   1  -7  -7    0.07    0.26
   1   7  -7    0.35    0.44
   1   7  -7    0.07    0.46
   0  -7  -7    0.84    0.47
   0   7  -7    0.65    0.53
   0   7  -7    1.24    0.60
  -1  -7  -7    2.30    0.59
  -1   7  -7    2.17    0.63
  -1   7  -7    1.94    0.65
  -2  -7  -7   15.41    1.02
  -2   7  -7   16.84    1.18
  -2   7  -7   16.31    1.32
  -3  -7  -7    5.86    0.78
  -3  -7  -7    7.10    0.77
  -3   7  -7    9.25    1.10
  -3   7  -7    6.89    1.01
  -4  -7  -7    4.76    0.66
  -4  -7  -7    5.03    0.81
   4  -7   7    5.38    0.84
  -4   7  -7    6.26    1.05
   5  -7   7    1.73    0.63
  -5  -7  -7    1.96    0.55
  -5  -7  -7    2.26    0.73
  -5   7  -7    2.12    0.88
   6  -7   7    5.06    0.91
  -6  -7  -7    4.15    0.68
  -6  -7  -7    5.52    0.92
  -6   7  -7    5.35    1.04
   7  -7   7    7.97    1.01
  -7  -7  -7    5.82    0.80
  -7   7  -7    8.05    1.32
   8  -7   7    0.15    0.64
  -8  -7  -7    0.31    0.58
   9  -7   7   -0.88    0.70
  -9  -7  -7    0.54    0.58
  10  -7   7    0.73    0.77
 -10  -7  -7    1.39    0.69
  11  -7   7    1.65    0.98
 -11  -7  -7    1.79    0.83
  12  -7   7    0.11    0.98
 -12  -7  -7   -0.01    0.84
 -16  -8   7   -0.29    1.08
  16   8  -7    3.26    1.07
  15  -8  -7    0.28    1.06
 -15  -8   7    1.29    1.22
  15   8  -7    1.06    0.80
  14  -8  -7    3.47    1.26
 -14  -8   7    1.09    1.16
  14   8  -7    5.18    1.15
  13  -8  -7   -0.25    0.90
 -13  -8   7    1.20    0.96
  13   8  -7    1.50    0.78
 -12  -8   7    0.11    0.80
  12  -8  -7    1.22    0.91
  12   8  -7    0.79    0.78
  11  -8  -7    2.22    0.99
 -11  -8   7    0.78    0.79
  11   8  -7    3.00    0.83
  10  -8  -7    1.37    0.88
 -10  -8   7    1.85    0.83
  10   8  -7    4.01    0.92
  -9  -8   7    3.39    0.79
   9  -8  -7    4.72    0.93
   9   8  -7    4.20    0.87
   8  -8  -7    0.40    0.61
  -8  -8   7    0.11    0.59
   8   8  -7    1.05    0.65
  -7  -8   7    1.09    0.62
   7  -8  -7    0.93    0.65
   7   8  -7    0.72    0.59
   6  -8  -7   19.81    1.38
   6  -8  -7   20.80    1.24
  -6  -8   7   20.56    1.23
   6   8  -7   22.53    1.37
   5  -8  -7   40.68    1.61
   5  -8  -7   38.57    1.80
  -5  -8   7   42.31    1.62
   5   8  -7   42.50    1.88
  -4  -8   7    1.22    0.43
   4  -8  -7    0.57    0.45
   4  -8  -7    0.51    0.47
   4   8  -7    0.79    0.54
  -3  -8   7    0.30    0.36
   3  -8  -7    0.80    0.41
   3  -8  -7    0.49    0.45
   3   8  -7    0.04    0.47
   2  -8  -7    0.43    0.43
   2  -8  -7   -0.33    0.31
   2   8  -7   -0.23    0.46
   1  -8  -7    9.66    1.02
   1  -8  -7   10.19    0.88
   1   8  -7   11.14    1.13
   0  -8  -7   20.81    1.23
   0   8  -7   22.08    1.35
  -1  -8  -7    5.08    0.76
  -1   8  -7    6.92    0.98
  -1   8  -7    6.49    0.95
  -2  -8  -7    0.75    0.52
  -2   8  -7   -0.86    0.51
  -2   8  -7   -0.07    0.53
  -3  -8  -7   11.58    1.02
  -3  -8  -7   11.06    0.94
  -3   8  -7   12.66    1.17
  -3   8  -7   12.83    1.24
  -4  -8  -7   18.98    1.25
  -4  -8  -7   19.74    1.24
   4  -8   7   19.48    1.31
  -4   8  -7   18.19    1.48
  -5  -8  -7    7.28    0.85
   5  -8   7    6.37    0.92
  -5  -8  -7    6.51    0.91
   6  -8   7    8.38    1.09
  -6  -8  -7    7.34    0.92
   7  -8   7   -0.01    0.65
  -7  -8  -7    0.24    0.54
   8  -8   7    4.61    1.01
  -8  -8  -7    4.17    0.84
   9  -8   7    6.15    1.08
  -9  -8  -7    5.78    0.97
 -10  -8  -7    3.54    0.91
  10  -8   7    3.71    1.01
 -11  -8  -7    0.53    0.82
  11  -8   7    0.73    0.96
 -12  -8  -7   -0.69    0.84
  12  -8   7   -0.95    0.84
 -15  -9   7   -1.16    1.00
  15   9  -7    2.91    0.96
 -14  -9   7    0.75    1.14
  14  -9  -7   -0.73    1.13
  14   9  -7    0.96    0.78
 -13  -9   7   -0.46    1.06
  13  -9  -7   -0.59    1.01
  13   9  -7    1.34    0.74
  12  -9  -7   -0.43    0.84
 -12  -9   7    0.93    0.96
  12   9  -7    0.68    0.74
 -11  -9   7    0.53    0.79
  11  -9  -7    0.87    0.87
  11   9  -7    2.01    0.78
 -10  -9   7    0.17    0.75
  10  -9  -7    0.44    0.76
  10   9  -7    1.50    0.75
   9  -9  -7    0.55    0.79
  -9  -9   7    0.33    0.64
   9   9  -7    0.08    0.54
  -8  -9   7    0.91    0.64
   8  -9  -7    2.07    0.79
   8   9  -7    1.46    0.67
   7  -9  -7    9.93    1.13
  -7  -9   7    5.86    0.81
   7  -9  -7    9.78    1.08
   7   9  -7    8.41    1.05
   6  -9  -7    2.06    0.65
   6  -9  -7    1.67    0.68
  -6  -9   7    1.70    0.57
   6   9  -7    1.75    0.66
   5  -9  -7   -1.03    0.50
  -5  -9   7   -0.53    0.43
   5  -9  -7   -0.40    0.44
   5   9  -7   -0.56    0.47
   4  -9  -7    9.99    0.85
   4  -9  -7    8.02    0.97
  -4  -9   7    9.25    0.85
   4   9  -7    9.14    1.03
   3  -9  -7    6.34    0.85
   3  -9  -7    8.25    0.77
   3   9  -7    6.52    0.91
   2  -9  -7    5.58    0.83
   2  -9  -7    6.42    0.73
   2   9  -7    5.57    0.91
   1  -9  -7    0.06    0.48
   1   9  -7    2.00    0.71
   0  -9  -7    0.89    0.55
   0   9  -7    1.71    0.67
  -1  -9  -7    3.30    0.69
  -1   9  -7    3.97    0.82
  -2  -9  -7    1.34    0.59
  -2   9  -7    1.24    0.65
  -3  -9  -7    3.43    0.62
  -3  -9  -7    4.47    0.74
  -3   9  -7    4.54    0.94
  -4  -9  -7    2.18    0.67
  -4  -9  -7    1.11    0.48
   4  -9   7    2.36    0.69
   5  -9   7    1.04    0.61
  -5  -9  -7    0.49    0.43
   6  -9   7    2.08    0.72
  -6  -9  -7    1.29    0.60
  -7  -9  -7    2.78    0.68
   7  -9   7    5.17    1.01
   8  -9   7   10.25    1.27
  -8  -9  -7    8.10    1.03
   9  -9   7    2.25    0.95
  -9  -9  -7    2.06    0.74
  10  -9   7   -0.81    0.86
 -10  -9  -7   -0.34    0.65
  11  -9   7   -0.44    0.95
 -11  -9  -7   -0.81    0.74
  14 -10  -7   -1.07    1.30
 -14 -10   7    1.11    1.24
  14  10  -7    3.07    0.97
  13 -10  -7   -1.14    0.99
 -13 -10   7   -0.69    0.89
  13  10  -7    1.26    0.78
  12 -10  -7   -0.03    0.92
 -12 -10   7   -1.90    0.86
  12  10  -7    1.66    0.79
 -11 -10   7    5.48    1.17
  11 -10  -7    3.45    1.05
  11  10  -7    5.03    0.99
 -10 -10   7    3.18    0.97
  10 -10  -7    2.24    0.93
  10  10  -7    6.18    1.09
   9 -10  -7    2.84    0.95
  -9 -10   7    2.32    0.84
   9  10  -7    4.38    0.93
  -8 -10   7    0.97    0.65
   8 -10  -7    1.20    0.76
   8  10  -7    3.11    0.85
  -7 -10   7   -0.31    0.56
   7 -10  -7    1.07    0.63
   7 -10  -7   -0.21    0.59
   7  10  -7   -0.02    0.60
   6 -10  -7   10.28    1.19
  -6 -10   7    7.52    0.87
   6 -10  -7    7.55    0.92
   6  10  -7    8.06    1.07
   5 -10  -7    2.58    0.70
   5 -10  -7    1.69    0.60
  -5 -10   7    2.14    0.57
   5  10  -7    2.45    0.68
   4 -10  -7    3.85    0.79
   4 -10  -7    4.14    0.68
   4  10  -7    2.86    0.75
   3 -10  -7    1.09    0.60
   3 -10  -7    1.73    0.59
   3  10  -7    0.92    0.60
   2 -10  -7    3.57    0.70
   2  10  -7    3.16    0.83
   1 -10  -7    8.96    0.92
   1  10  -7    9.67    1.18
   0 -10  -7   16.15    1.18
   0  10  -7   15.48    1.29
  -1 -10  -7    5.34    0.82
  -1  10  -7    5.98    0.96
  -2 -10  -7   -0.09    0.49
  -2  10  -7   -0.07    0.56
  -3 -10  -7    0.85    0.60
  -3 -10  -7    1.31    0.55
  -3  10  -7    1.52    0.75
   4 -10   7    0.62    0.56
  -4 -10  -7    1.00    0.48
  -5 -10  -7   13.36    1.20
   5 -10   7   14.18    1.21
  -6 -10  -7    4.04    0.77
   6 -10   7    5.85    1.04
  -7 -10  -7    0.31    0.53
   7 -10   7    0.42    0.66
  -8 -10  -7    4.05    0.86
   8 -10   7    5.43    1.14
   9 -10   7    4.44    1.14
  -9 -10  -7    4.22    0.96
 -10 -10  -7    2.34    0.95
  10 -10   7    2.69    1.09
 -11 -10  -7   -0.03    0.80
 -14 -11   7   -1.32    1.13
 -13 -11   7   -1.29    0.93
  13 -11  -7   -0.79    1.08
  13  11  -7    2.10    0.82
  12 -11  -7   -0.96    1.01
 -12 -11   7   -1.74    0.89
  12  11  -7    1.19    0.80
 -11 -11   7    0.07    0.95
  11 -11  -7   -0.87    0.95
  11  11  -7    1.18    0.72
 -10 -11   7    0.36    0.82
  10 -11  -7   -0.83    0.88
  10  11  -7    1.88    0.82
  -9 -11   7   -0.02    0.69
   9 -11  -7    1.75    0.91
   9  11  -7    1.97    0.81
  -8 -11   7    1.73    0.75
   8 -11  -7    1.56    0.83
   8  11  -7    2.54    0.81
   7 -11  -7    3.05    0.78
  -7 -11   7    0.73    0.63
   7 -11  -7    1.30    0.75
   7  11  -7    2.31    0.76
   6 -11  -7    0.80    0.61
   6 -11  -7    0.00    0.59
  -6 -11   7    0.27    0.60
   6  11  -7    0.19    0.56
   5 -11  -7    0.78    0.59
   5 -11  -7    0.20    0.54
   5  11  -7    0.06    0.49
   4 -11  -7    0.67    0.54
   4  11  -7    0.18    0.50
   3 -11  -7    0.82    0.60
   3  11  -7    1.05    0.67
   2 -11  -7    3.65    0.78
   2  11  -7    3.74    0.84
   1 -11  -7   -0.24    0.49
   1  11  -7    0.44    0.63
   0 -11  -7    2.35    0.66
   0  11  -7    1.99    0.74
  -1 -11  -7   -0.21    0.50
  -1  11  -7    0.17    0.58
  -2 -11  -7    0.67    0.51
  -2 -11  -7    0.38    0.55
  -2  11  -7    0.63    0.63
  -3 -11  -7    0.28    0.70
  -3 -11  -7    0.48    0.45
  -3  11  -7    0.08    0.71
   4 -11   7    0.30    0.55
  -4 -11  -7   -0.18    0.41
   5 -11   7    3.93    0.93
  -5 -11  -7    2.69    0.74
   6 -11   7   -0.11    0.62
  -6 -11  -7   -0.28    0.53
   7 -11   7    0.20    0.71
  -7 -11  -7    0.45    0.63
   8 -11   7    1.17    0.81
  -8 -11  -7    0.31    0.64
   9 -11   7    0.73    0.84
  -9 -11  -7    0.40    0.79
 -10 -11  -7   -0.90    0.64
 -13 -12   7   -1.71    1.04
 -12 -12   7   -1.39    0.88
  12 -12  -7   -1.48    1.00
  12  12  -7    1.18    0.76
  11 -12  -7   -1.44    0.95
 -11 -12   7   -0.10    0.92
  11  12  -7    2.27    0.88
 -10 -12   7   -0.06    0.86
  10 -12  -7    0.62    0.97
  10  12  -7    2.22    0.80
  -9 -12   7    1.77    0.88
   9 -12  -7    2.49    1.02
   9  12  -7    2.67    0.84
   8 -12  -7    1.59    0.90
  -8 -12   7    0.40    0.73
   8 -12  -7    2.96    0.78
   8  12  -7    1.26    0.80
   7 -12  -7    0.85    0.69
   7 -12  -7   -1.06    0.64
   7  12  -7    0.44    0.60
   6 -12  -7    6.32    1.01
   6 -12  -7    7.59    1.10
   6  12  -7    6.25    1.00
   5 -12  -7    3.48    0.83
   5  12  -7    1.79    0.77
   4 -12  -7    1.35    0.64
   4  12  -7    1.52    0.69
   3 -12  -7    1.37    0.62
   3  12  -7    1.11    0.67
   2 -12  -7    3.88    0.84
   2  12  -7    4.04    0.89
   1 -12  -7    4.87    0.85
   1  12  -7    5.45    1.07
   0 -12  -7   21.71    1.40
   0  12  -7   23.42    1.64
  -1 -12  -7    7.73    1.03
  -1  12  -7    7.37    1.10
  -2 -12  -7    0.23    0.58
  -2 -12  -7    0.19    0.49
  -2  12  -7    0.94    0.78
  -3 -12  -7    0.22    0.53
  -3  12  -7   -0.27    0.64
  -4 -12  -7   -0.24    0.52
   4 -12   7    1.40    0.67
  -5 -12  -7    5.72    0.95
   5 -12   7    4.87    0.95
  -6 -12  -7    1.85    0.69
   6 -12   7    1.78    0.79
  -7 -12  -7    0.07    0.61
   7 -12   7    0.95    0.73
   8 -12   7    5.01    1.35
  -8 -12  -7    4.15    1.02
  -9 -12  -7    1.78    0.88
 -11 -13   7   -1.26    0.94
  11 -13  -7   -2.50    0.98
  11  13  -7    1.07    0.76
 -10 -13   7   -1.46    0.73
  10 -13  -7   -0.52    0.95
  10  13  -7    1.08    0.83
  -9 -13   7   -0.38    0.94
   9 -13  -7    1.58    0.68
   9 -13  -7   -1.56    0.80
   9  13  -7   -0.66    0.60
   8 -13  -7   -0.97    0.73
   8 -13  -7    2.49    0.75
   8  13  -7    0.67    0.71
   7 -13  -7   -0.54    0.67
   7 -13  -7    0.65    0.61
   7  13  -7   -0.15    0.54
   6 -13  -7    1.08    0.72
   6  13  -7   -0.34    0.62
   5 -13  -7    0.11    0.66
   5  13  -7    0.69    0.67
   4 -13  -7    2.24    0.77
   4  13  -7    2.28    0.79
   3 -13  -7   -0.18    0.53
   3  13  -7    0.41    0.63
   2 -13  -7   -0.33    0.57
   2  13  -7    0.53    0.72
   1 -13  -7    0.12    0.61
   1  13  -7    0.26    0.71
   0 -13  -7   -0.89    0.54
   0  13  -7   -0.48    0.64
  -1 -13  -7   -0.05    0.62
  -1  13  -7   -0.13    0.70
  -2 -13  -7    0.62    0.51
  -2  13  -7    0.81    0.80
  -3 -13  -7    0.65    0.56
  -3  13  -7   -0.16    0.73
  -4 -13  -7    0.94    0.57
   4 -13   7    1.52    0.70
  -5 -13  -7   -0.25    0.53
   5 -13   7    0.51    0.65
   6 -13   7    0.70    0.72
  -6 -13  -7    0.39    0.56
  -7 -13  -7   -0.33    0.66
  -8 -13  -7   -0.14    0.66
  10 -14  -7    5.88    1.08
  10 -14  -7   -0.12    1.06
  10  14  -7    3.09    1.06
   9 -14  -7    1.93    0.71
   9 -14  -7   -1.31    0.87
   9  14  -7    0.63    0.78
   8 -14  -7    1.84    0.76
   8  14  -7    0.50    0.75
   7 -14  -7    2.14    0.77
   7  14  -7    0.96    0.79
   6 -14  -7    2.81    0.82
   6  14  -7    2.18    0.88
   5 -14  -7    1.01    0.69
   5  14  -7    0.59    0.69
   4 -14  -7    0.40    0.69
   4  14  -7   -0.20    0.63
   3 -14  -7    1.27    0.79
   3  14  -7    1.03    0.81
   2 -14  -7    3.23    0.91
   2  14  -7    3.26    0.94
   1 -14  -7    5.86    1.04
   1  14  -7    2.10    0.93
   0 -14  -7    8.36    1.12
   0  14  -7    7.10    1.22
  -1 -14  -7    6.41    0.93
  -1  14  -7    4.13    1.10
  -2 -14  -7    0.20    0.49
  -2  14  -7    0.43    0.78
  -3 -14  -7    1.35    0.65
   3 -14   7    3.01    0.80
   4 -14   7    8.25    1.25
  -4 -14  -7    5.81    0.96
  -5 -14  -7    2.13    0.72
   5 -14   7    5.41    1.70
  -6 -14  -7   -0.53    0.60
   8 -15  -7    3.77    0.93
   8  15  -7    1.28    0.82
   7 -15  -7    4.32    1.00
   7  15  -7    1.41    0.83
   6 -15  -7    2.04    0.80
   6  15  -7    2.61    1.02
   5 -15  -7    0.85    0.73
   5  15  -7    0.29    0.67
   4 -15  -7    0.95    0.69
   4  15  -7    1.60    0.83
   3 -15  -7    0.19    0.71
   3  15  -7   -0.42    0.64
   2 -15  -7    2.46    0.86
   2  15  -7    0.49    0.73
   1 -15  -7   -0.52    0.65
   1  15  -7   -0.33    0.67
   0 -15  -7    1.16    0.48
   0  15  -7    0.08    0.79
  -1 -15  -7    1.99    0.56
  -1  15  -7    0.48    0.79
  -2 -15  -7    1.54    0.69
  -2  15  -7    0.57    0.85
  -3 -15  -7    0.88    0.64
  -4 -15  -7    0.46    0.61
   6 -16  -7    3.73    0.93
   5 -16  -7    3.23    0.99
   5  16  -7    2.96    1.01
   4 -16  -7    1.23    0.85
   4  16  -7    0.80    0.88
   3 -16  -7   -0.39    0.73
   3  16  -7   -0.50    0.72
   2 -16  -7   -0.37    0.74
   2  16  -7   -0.19    0.71
   1  16  -7    0.34    0.95
   0 -16  -7    2.64    0.65
  -1 -16  -7    0.55    0.51
  -2 -16  -7    0.95    0.63
  17   0  -8    1.24    0.91
  16   0  -8    3.15    1.03
  15   0  -8    0.64    0.83
  14   0  -8    8.07    1.23
  13   0  -8    9.49    1.25
  12   0  -8    5.91    1.02
  11   0  -8    0.17    0.70
  10   0  -8   39.44    1.48
  10   0  -8   42.24    1.91
   9   0  -8   16.49    1.21
   9   0  -8   15.91    0.87
   8   0  -8    8.51    0.64
   8   0  -8    8.50    0.90
   7   0  -8   -0.32    0.41
   7   0  -8   -0.07    0.26
   6   0  -8    7.96    0.58
   6   0  -8    9.13    0.75
   5   0  -8   34.37    1.23
   5   0  -8   33.75    1.33
   4   0  -8    0.95    0.38
   4   0  -8    0.40    0.30
   3   0  -8    0.92    0.32
   3   0  -8    0.50    0.31
   2   0  -8   18.13    0.79
   2   0  -8   17.89    0.89
   1   0  -8   32.86    1.28
   1   0  -8   32.65    1.10
   0   0  -8   23.90    0.88
   0   0  -8   22.53    1.10
  -1   0  -8   58.38    1.67
  -1   0  -8   57.67    1.99
  -2   0  -8   21.33    1.19
   3   0   8   34.89    1.15
  -3   0  -8   34.49    1.64
  -3   0  -8   33.89    1.17
   4   0   8   24.94    1.00
  -4   0  -8   27.01    1.53
  -4   0  -8   25.91    1.01
  -5   0  -8   61.23    2.43
   5   0   8   61.72    1.90
  -5   0  -8   63.91    1.94
  -6   0  -8   51.43    2.22
   6   0   8   51.58    1.73
  -6   0  -8   51.50    1.75
  -7   0  -8   41.11    2.05
  -7   0  -8   41.60    1.63
  -8   0  -8    5.45    1.02
  -9   0  -8    1.12    0.85
 -10   0  -8    6.14    1.24
 -11   0  -8    3.19    0.99
 -12   0  -8    0.74    0.91
  17  -1  -8    0.97    0.93
  17   1  -8    0.08    0.94
  16  -1  -8    1.09    1.02
  16   1  -8   -0.03    0.89
  15  -1  -8    0.13    0.82
  15   1  -8    0.97    0.91
  14  -1  -8    0.27    0.78
  14   1  -8    0.70    0.78
  13  -1  -8   -0.05    0.71
  13   1  -8   -0.14    0.67
  12  -1  -8    0.72    0.76
  12   1  -8    2.17    0.78
  11  -1  -8    0.96    0.76
  11  -1  -8    0.06    0.40
  11   1  -8   -0.04    0.66
  10  -1  -8    2.31    0.78
  10  -1  -8    3.63    0.59
  10   1  -8    4.01    0.84
   9  -1  -8    3.41    0.54
   9  -1  -8    3.70    0.78
   9   1  -8    4.08    0.84
   9   1  -8    3.81    0.48
   8  -1  -8    0.80    0.36
   8  -1  -8    0.52    0.56
   8   1  -8    0.75    0.57
   8   1  -8    0.76    0.31
   7  -1  -8    4.61    0.55
   7  -1  -8    4.55    0.67
   7   1  -8    5.28    0.77
   7   1  -8    4.68    0.48
   6  -1  -8    1.73    0.54
   6  -1  -8    1.78    0.38
   6   1  -8    1.17    0.47
   6   1  -8    0.85    0.30
   5  -1  -8    4.01    0.52
   5  -1  -8    4.46    0.53
   5   1  -8    6.42    0.52
   5   1  -8    5.53    0.64
   4  -1  -8   11.26    0.69
   4  -1  -8   11.66    0.71
   4   1  -8   11.38    0.71
   4   1  -8   11.72    0.70
   3  -1  -8   18.66    0.89
   3  -1  -8   20.02    0.84
   3   1  -8   19.09    0.90
   3   1  -8   19.38    0.87
   2  -1  -8    0.18    0.35
   2  -1  -8   -0.17    0.23
   2   1  -8   -0.14    0.35
   2   1  -8   -0.21    0.27
   1  -1  -8    3.89    0.36
   1  -1  -8    4.80    0.61
   1   1  -8    5.09    0.61
   1   1  -8    4.16    0.48
   0  -1  -8   21.64    1.08
   0  -1  -8   20.92    0.75
   0   1  -8   21.34    0.90
   0   1  -8   22.66    1.14
  -1  -1  -8    0.70    0.47
  -1  -1  -8    0.57    0.21
  -1   1  -8    0.70    0.48
  -1   1  -8    0.59    0.34
  -2  -1  -8    2.28    0.66
  -2   1  -8    2.49    0.44
  -2   1  -8    3.18    0.68
  -2   1  -8    2.44    0.29
   2   1   8    3.16    0.31
   3  -1   8   17.67    0.85
  -3  -1  -8   18.93    1.18
  -3  -1  -8   19.23    0.86
  -3   1  -8   18.80    0.76
   3   1   8   18.52    0.71
  -3   1  -8   19.69    1.22
   4  -1   8    2.37    0.45
  -4  -1  -8    2.55    0.40
  -4  -1  -8    2.08    0.74
  -4   1  -8    1.52    0.34
   4   1   8    1.81    0.35
  -4   1  -8    1.93    0.75
  -5  -1  -8   -0.58    0.61
  -5  -1  -8    0.17    0.31
   5  -1   8    0.08    0.36
  -5   1  -8   -0.72    0.69
  -5   1  -8   -0.70    0.30
   5   1   8   -0.05    0.49
  -6  -1  -8    0.10    0.67
  -6  -1  -8    1.07    0.43
   6  -1   8    1.24    0.48
  -6   1  -8    0.81    0.82
  -7  -1  -8   10.80    1.23
  -7  -1  -8   10.81    0.90
   7  -1   8   11.61    0.89
  -7   1  -8    8.77    1.19
  -8  -1  -8    6.05    0.76
  -8  -1  -8    8.68    1.23
  -8   1  -8    7.54    1.22
  -9  -1  -8   -0.49    0.52
  -9  -1  -8   -0.97    0.73
  -9   1  -8    3.81    1.02
 -10  -1  -8    2.35    0.91
 -10   1  -8    1.78    0.95
 -11  -1  -8   -0.54    0.76
 -11   1  -8    0.07    0.90
 -12   1  -8    1.52    1.01
 -13   1  -8    1.85    1.09
  17  -2  -8    0.76    0.95
  17   2  -8    2.67    1.05
  16  -2  -8   -0.33    0.97
  16   2  -8    1.13    0.99
  15  -2  -8    2.00    0.96
  15   2  -8    2.48    0.97
  14  -2  -8    7.37    1.19
  14   2  -8    6.48    1.23
  13  -2  -8    6.59    1.06
  13   2  -8    5.25    1.12
  12  -2  -8    2.96    0.86
  12   2  -8    1.22    0.77
  11  -2  -8    1.22    0.75
  11   2  -8    0.41    0.80
  10  -2  -8   13.94    1.30
  10  -2  -8   13.02    0.94
  10   2  -8   11.23    1.19
   9  -2  -8    4.78    0.67
   9  -2  -8    5.15    0.90
   9   2  -8    3.73    0.79
   8  -2  -8   18.94    1.03
   8  -2  -8   19.86    1.17
   8   2  -8   18.96    1.19
   8   2  -8   19.24    0.83
   7  -2  -8    1.38    0.53
   7  -2  -8    1.07    0.38
   7   2  -8    0.64    0.47
   7   2  -8    1.25    0.32
   6  -2  -8    0.16    0.29
   6  -2  -8   -0.66    0.37
   6   2  -8   -0.08    0.27
   6   2  -8   -0.67    0.35
   5  -2  -8   16.52    0.91
   5  -2  -8   16.57    0.87
   5   2  -8   16.93    0.79
   5   2  -8   16.07    0.92
   4  -2  -8   24.67    1.01
   4  -2  -8   23.45    1.05
   4   2  -8   26.42    1.15
   4   2  -8   25.06    1.01
   3  -2  -8   18.02    0.79
   3  -2  -8   20.74    0.98
   3   2  -8   19.94    0.98
   3   2  -8   20.63    0.93
   2  -2  -8    1.12    0.41
   2  -2  -8    1.24    0.28
   2   2  -8    0.96    0.38
   2   2  -8    0.76    0.35
   1  -2  -8    0.33    0.19
   1  -2  -8    0.30    0.37
   1   2  -8    0.53    0.41
   1   2  -8    0.16    0.31
   0  -2  -8   56.46    1.43
   0  -2  -8   55.38    1.89
   0   2  -8   56.43    1.95
   0   2  -8   56.10    1.79
  -1  -2  -8   63.73    2.09
  -1   2  -8   64.67    1.98
  -1   2  -8   60.75    2.14
   1   2   8   62.59    1.52
  -2  -2  -8   28.18    1.36
   2   2   8   26.24    0.75
  -2   2  -8   26.73    1.35
  -2   2  -8   26.34    0.82
  -2   2  -8   26.95    1.14
   3  -2   8    1.22    0.40
  -3  -2  -8    1.81    0.68
  -3  -2  -8    1.39    0.34
   3   2   8    1.43    0.25
  -3   2  -8    1.48    0.25
  -3   2  -8    0.71    0.54
  -4  -2  -8    7.20    0.64
   4  -2   8    6.79    0.69
  -4  -2  -8    7.51    0.92
  -4   2  -8    7.03    0.99
   5  -2   8    3.98    0.60
  -5  -2  -8    2.92    0.47
  -5  -2  -8    1.99    0.74
  -5   2  -8    4.57    0.90
  -6  -2  -8    1.63    0.86
  -6  -2  -8    1.41    0.48
   6  -2   8    1.67    0.53
  -6   2  -8    2.31    0.79
  -7  -2  -8    3.65    0.62
   7  -2   8    4.73    0.74
  -7  -2  -8    5.01    0.95
  -7   2  -8    4.67    0.98
  -8  -2  -8    0.01    0.45
  -8  -2  -8    0.23    0.70
   8  -2   8   -0.05    0.52
  -8   2  -8   -0.40    0.71
  -9  -2  -8    0.61    0.58
  -9  -2  -8    1.92    0.90
  -9   2  -8    0.40    0.78
 -10  -2  -8    5.73    1.15
 -10  -2  -8    4.21    0.87
 -10   2  -8    6.09    1.21
 -11   2  -8    0.85    0.97
 -12   2  -8    1.51    1.05
 -13   2  -8    1.33    1.12
  17  -3  -8   -0.24    1.06
  17   3  -8    2.15    0.97
  16  -3  -8   -0.46    0.99
  16   3  -8    1.32    0.93
  15  -3  -8    1.13    1.05
  15   3  -8    1.31    0.88
  14  -3  -8    1.91    0.93
  14   3  -8    2.62    0.91
  13  -3  -8   -0.25    0.84
  13   3  -8    0.07    0.69
  12  -3  -8    1.24    0.78
  12   3  -8    0.24    0.69
  11  -3  -8    2.08    0.83
  11   3  -8    2.15    0.80
  10  -3  -8    0.81    0.50
  10  -3  -8    0.01    0.68
  10   3  -8    0.94    0.69
   9  -3  -8    2.17    0.71
   9  -3  -8    1.13    0.52
   9   3  -8    0.91    0.66
   8  -3  -8    2.61    0.59
   8  -3  -8    2.63    0.66
   8   3  -8    2.39    0.70
   7  -3  -8    1.12    0.42
   7  -3  -8    1.76    0.55
   7   3  -8    1.90    0.36
   7   3  -8    1.61    0.54
   6  -3  -8    9.39    0.83
   6  -3  -8    8.85    0.76
   6   3  -8    9.29    0.89
   6   3  -8    9.33    0.59
   5  -3  -8    7.92    0.70
   5  -3  -8    7.31    0.70
   5   3  -8    6.88    0.59
   5   3  -8    7.66    0.73
   4  -3  -8    0.00    0.32
   4  -3  -8   -0.25    0.31
   4   3  -8    0.05    0.35
   4   3  -8    0.24    0.32
   3  -3  -8    5.65    0.63
   3  -3  -8    5.22    0.51
   3   3  -8    6.24    0.61
   3   3  -8    5.68    0.59
   2  -3  -8   19.63    0.72
   2  -3  -8   20.59    1.00
   2   3  -8   18.79    0.99
   2   3  -8   20.91    1.01
   1  -3  -8   27.99    1.21
   1  -3  -8   31.71    0.84
   1   3  -8   26.04    1.25
   1   3  -8   27.10    1.18
   0  -3  -8    9.98    0.75
   0   3  -8    7.63    0.65
   0   3  -8    6.79    0.75
  -1  -3  -8    6.63    0.72
  -1   3  -8    5.86    0.77
  -1   3  -8    5.36    0.63
  -2  -3  -8    3.29    0.66
  -2   3  -8    4.27    0.75
  -2   3  -8    3.13    0.57
  -3  -3  -8   -0.10    0.32
  -3  -3  -8    1.53    0.63
  -3   3  -8    0.15    0.39
  -3   3  -8    0.21    0.62
  -4  -3  -8    0.34    0.66
  -4  -3  -8    0.02    0.27
   4  -3   8    0.20    0.39
  -4   3  -8   -0.49    0.58
   5  -3   8   -0.04    0.42
  -5  -3  -8    0.78    0.73
  -5  -3  -8   -0.10    0.36
  -5   3  -8   -0.07    0.64
   6  -3   8    2.74    0.65
  -6  -3  -8    2.19    0.86
  -6  -3  -8    1.04    0.46
  -6   3  -8    0.90    0.86
  -7  -3  -8   -0.08    0.45
   7  -3   8   -0.34    0.48
  -7  -3  -8    0.00    0.76
  -7   3  -8    0.37    0.72
   8  -3   8    2.42    0.71
  -8  -3  -8    2.23    0.62
  -8  -3  -8    3.59    0.95
  -8   3  -8    2.79    0.98
  -9  -3  -8    0.38    0.78
   9  -3   8    0.13    0.64
  -9  -3  -8   -0.47    0.52
  -9   3  -8   -0.76    0.71
 -10  -3  -8    1.18    0.70
 -10  -3  -8    0.96    1.12
 -10   3  -8    0.48    0.93
 -11  -3  -8   -0.20    0.72
 -11   3  -8    1.20    0.99
 -12   3  -8    2.54    1.12
 -13   3  -8    3.54    1.22
  17   4  -8    1.15    0.92
  16  -4  -8    0.79    0.98
  16   4  -8    0.67    0.91
  15  -4  -8   -1.17    0.81
  15   4  -8    0.16    0.86
  14  -4  -8    1.02    0.93
  14   4  -8    1.82    0.96
  13  -4  -8   -0.91    0.75
  13   4  -8    0.56    0.74
 -12  -4   8    0.44    0.81
  12  -4  -8    1.32    0.88
  12   4  -8    0.25    0.67
  11  -4  -8   -0.48    0.69
 -11  -4   8    1.01    0.81
  11   4  -8   -0.58    0.68
  10  -4  -8    6.33    1.05
 -10  -4   8    5.23    1.04
  10   4  -8    5.47    0.94
   9  -4  -8   19.01    1.18
  -9  -4   8   21.62    1.46
   9  -4  -8   22.99    1.45
   9   4  -8   21.74    1.44
   8  -4  -8   24.46    1.30
  -8  -4   8   26.30    1.47
   8  -4  -8   27.87    1.46
   8   4  -8   26.11    1.41
   7  -4  -8    2.90    0.62
  -7  -4   8    3.08    0.68
   7  -4  -8    3.45    0.61
   7   4  -8    2.95    0.65
   6  -4  -8   12.75    0.88
   6  -4  -8   12.27    0.84
   6   4  -8   10.90    0.61
   6   4  -8   11.19    0.91
   5  -4  -8   54.23    1.91
   5  -4  -8   50.28    1.70
   5   4  -8   51.19    1.88
   5   4  -8   52.07    1.58
   4   4  -8    4.73    0.64
   4   4  -8    4.58    0.52
   3  -4  -8   36.89    1.48
   3  -4  -8   41.42    1.27
   3   4  -8   37.50    1.39
   3   4  -8   36.95    1.52
   2   4  -8   -0.17    0.32
   2   4  -8   -0.16    0.32
   1  -4  -8   19.85    1.07
   1  -4  -8   19.67    0.64
   1   4  -8   20.93    1.11
   1   4  -8   22.23    1.09
   0  -4  -8   13.56    0.92
   0   4  -8   10.80    0.83
   0   4  -8   12.42    0.97
  -1  -4  -8   19.43    1.07
  -1   4  -8   21.05    1.26
  -1   4  -8   18.92    1.09
  -2  -4  -8   16.55    1.04
  -2   4  -8   15.11    1.19
  -2   4  -8   14.20    1.00
  -3  -4  -8    7.54    0.89
  -3   4  -8    3.12    0.69
  -3   4  -8    3.36    0.82
   4  -4   8    1.14    0.52
  -4  -4  -8    1.35    0.44
  -4  -4  -8    2.47    0.73
  -4   4  -8    1.64    0.71
  -5  -4  -8    0.98    0.78
   5  -4   8    1.97    0.60
  -5  -4  -8    1.32    0.46
  -5   4  -8    1.36    0.73
  -6  -4  -8    5.99    0.74
  -6  -4  -8    6.53    1.05
   6  -4   8    6.47    0.85
  -6   4  -8    6.16    1.05
   7  -4   8    2.87    0.73
  -7  -4  -8    1.87    0.56
  -7  -4  -8    2.00    0.87
  -7   4  -8    2.88    0.87
  -8  -4  -8    1.13    0.80
   8  -4   8    0.64    0.57
  -8  -4  -8    0.29    0.55
  -8   4  -8   -0.16    0.71
   9  -4   8    6.23    1.02
  -9  -4  -8    6.36    0.91
  -9  -4  -8    5.62    1.08
  -9   4  -8    6.04    1.25
  10  -4   8    9.37    1.14
 -10  -4  -8    7.34    0.99
 -10   4  -8   12.79    1.63
 -11  -4  -8    4.92    0.95
 -11   4  -8    6.70    1.40
 -12  -4  -8   -0.95    0.74
 -12   4  -8    1.16    0.98
  17   5  -8    1.22    0.88
  16  -5  -8   -0.53    1.05
  16   5  -8   -0.16    0.72
  15  -5  -8    3.10    1.20
  15   5  -8    3.00    0.97
 -14  -5   8   -0.78    1.03
  14  -5  -8    0.47    1.04
  14   5  -8    1.17    0.88
  13  -5  -8   -0.98    0.89
 -13  -5   8   -0.17    0.85
  13   5  -8    0.91    0.72
  12  -5  -8    1.94    0.96
 -12  -5   8   -0.13    0.91
  12   5  -8    0.72    0.74
  11  -5  -8    0.38    0.82
 -11  -5   8   -0.37    0.81
  11   5  -8    0.30    0.62
 -10  -5   8    2.02    0.87
  10  -5  -8    2.20    0.80
  10   5  -8    2.70    0.84
   9  -5  -8    7.50    0.92
  -9  -5   8    7.03    1.03
   9  -5  -8    6.13    0.98
   9   5  -8    8.65    1.10
   8  -5  -8    5.27    0.83
  -8  -5   8    3.32    0.76
   8  -5  -8    3.53    0.75
   8   5  -8    4.87    0.84
   7  -5  -8    0.55    0.55
  -7  -5   8    0.57    0.57
   7  -5  -8   -0.62    0.45
   7   5  -8    0.24    0.52
   6  -5  -8   22.99    1.26
   6  -5  -8   20.65    1.08
  -6  -5   8   23.80    1.25
   6   5  -8   21.10    1.28
  -5  -5   8    0.71    0.46
   5  -5  -8    1.43    0.47
   5  -5  -8    0.49    0.40
   5   5  -8    0.76    0.48
   5   5  -8    0.52    0.29
   4  -5  -8   18.56    1.06
   4  -5  -8   18.37    0.91
  -4  -5   8   19.17    1.00
   4   5  -8   20.97    1.14
   4   5  -8   19.71    0.91
   3  -5  -8    2.21    0.40
   3  -5  -8    1.27    0.49
   3   5  -8    2.59    0.48
   3   5  -8    1.71    0.50
   2  -5  -8    8.95    0.54
   2  -5  -8    9.33    0.77
   2   5  -8    8.51    0.77
   2   5  -8    8.65    0.88
   1  -5  -8   68.70    1.83
   1  -5  -8   64.94    2.31
   1   5  -8   80.68    2.48
   1   5  -8   81.86    2.44
   0  -5  -8   55.28    1.93
   0   5  -8   56.33    2.04
   0   5  -8   53.20    2.02
  -1  -5  -8    0.15    0.48
  -1   5  -8    0.15    0.49
  -1   5  -8    0.66    0.51
  -2  -5  -8   15.02    1.08
  -2   5  -8   15.46    1.24
  -2   5  -8   14.74    1.02
  -3  -5  -8   13.19    1.08
  -3  -5  -8   11.75    0.83
  -3   5  -8    9.18    1.10
  -3   5  -8   11.05    1.03
   4  -5   8    6.19    0.83
  -4  -5  -8    4.81    0.86
  -4  -5  -8    4.36    0.58
  -4   5  -8    3.98    0.85
  -5  -5  -8    3.61    0.89
  -5  -5  -8    5.11    0.71
   5  -5   8    3.95    0.76
  -5   5  -8    4.51    1.02
   6  -5   8    6.58    0.86
  -6  -5  -8   11.10    1.21
  -6  -5  -8   10.99    0.97
  -6   5  -8    4.43    0.97
   7  -5   8    0.05    0.51
  -7  -5  -8    0.11    0.42
  -7  -5  -8   -0.07    0.73
  -7   5  -8   -0.79    0.61
   8  -5   8    0.73    0.63
  -8  -5  -8    1.48    0.86
  -8  -5  -8   -0.15    0.46
  -8   5  -8    0.91    0.87
   9  -5   8    0.82    0.78
  -9  -5  -8    0.82    0.65
  -9   5  -8    2.50    1.03
  10  -5   8    0.66    0.81
 -10  -5  -8    1.00    0.70
 -10   5  -8    1.41    0.98
  11  -5   8    0.26    0.85
 -11  -5  -8   -0.34    0.71
 -11   5  -8    1.10    0.92
 -12  -5  -8   -1.55    0.74
 -13  -5  -8    0.64    0.98
  16  -6  -8   -0.52    0.99
  16   6  -8    0.82    0.86
  15  -6  -8   -0.61    1.06
 -15  -6   8   -0.96    1.13
  15   6  -8   -0.12    0.77
  14  -6  -8    4.80    1.19
 -14  -6   8    4.95    1.30
  14   6  -8    6.05    1.12
 -13  -6   8    3.07    1.05
  13  -6  -8    4.73    1.13
  13   6  -8    6.19    1.11
 -12  -6   8    2.44    1.02
  12  -6  -8    0.06    0.79
  12   6  -8    1.09    0.76
  11  -6  -8    3.98    0.93
 -11  -6   8    4.00    0.93
  11   6  -8    5.27    1.01
  10  -6  -8   24.30    1.60
 -10  -6   8   24.11    1.74
  10   6  -8   24.51    1.56
   9  -6  -8   21.17    1.36
  -9  -6   8   22.74    1.60
   9   6  -8   21.29    1.43
   8  -6  -8    0.34    0.57
   8  -6  -8   -0.81    0.47
  -8  -6   8    0.76    0.65
   8   6  -8    0.11    0.57
   7  -6  -8    1.25    0.63
   7  -6  -8    0.58    0.55
  -7  -6   8    0.93    0.62
   7   6  -8    0.50    0.55
   6  -6  -8   -0.21    0.41
  -6  -6   8    0.03    0.52
   6  -6  -8    0.08    0.48
   6   6  -8   -0.63    0.45
  -5  -6   8   11.06    0.90
   5  -6  -8   11.18    0.83
   5  -6  -8   11.07    0.92
   5   6  -8   12.02    1.05
  -4  -6   8    8.61    0.79
   4  -6  -8    9.37    0.74
   4  -6  -8    8.69    0.81
   4   6  -8    8.79    0.96
   4   6  -8    9.12    0.69
   3  -6  -8    5.00    0.53
  -3  -6   8    3.28    0.47
   3  -6  -8    4.93    0.72
   3   6  -8    5.37    0.61
   3   6  -8    4.07    0.72
   2  -6  -8    4.47    0.67
   2  -6  -8    5.04    0.48
   2   6  -8    4.29    0.64
   2   6  -8    3.89    0.68
   1  -6  -8    4.40    0.65
   1  -6  -8    4.24    0.38
   1   6  -8    4.55    0.78
   1   6  -8    5.73    0.76
   0  -6  -8   -0.37    0.43
   0   6  -8    0.38    0.52
   0   6  -8   -0.45    0.51
  -1  -6  -8    1.27    0.51
  -1   6  -8    0.54    0.59
  -1   6  -8    0.47    0.60
  -2  -6  -8    6.28    0.82
  -2   6  -8    7.88    0.92
  -2   6  -8    7.07    0.98
  -3  -6  -8    1.34    0.46
  -3  -6  -8    1.25    0.58
  -3   6  -8    1.16    0.68
  -3   6  -8    1.68    0.78
  -4  -6  -8    0.60    0.66
   4  -6   8    0.01    0.54
  -4  -6  -8   -0.01    0.40
  -4   6  -8    0.15    0.66
  -5  -6  -8   19.36    1.38
   5  -6   8   16.82    1.16
  -5  -6  -8   20.05    1.23
  -5   6  -8   18.65    1.50
  -6  -6  -8    1.64    0.51
   6  -6   8    1.77    0.65
  -6  -6  -8    0.77    0.76
  -6   6  -8    1.91    0.88
  -7  -6  -8   -0.96    0.73
  -7  -6  -8   -0.07    0.49
   7  -6   8   -0.14    0.56
  -7   6  -8    0.50    0.80
   8  -6   8    0.01    0.64
  -8  -6  -8    0.04    0.54
  -8   6  -8    0.33    0.79
   9  -6   8    5.22    1.04
  -9  -6  -8    4.45    0.87
  -9   6  -8    6.88    1.37
  10  -6   8    6.54    1.17
 -10  -6  -8    4.36    0.86
 -10   6  -8    6.07    1.28
  11  -6   8   -0.61    0.88
 -11  -6  -8    0.06    0.71
 -12  -6  -8   -0.50    0.69
  12  -6   8   -0.34    0.90
 -16  -7   8   -1.37    1.22
  16   7  -8    1.91    0.93
 -15  -7   8    2.70    1.32
  15  -7  -8    1.28    1.18
  15   7  -8    3.33    1.00
 -14  -7   8    0.40    1.11
  14  -7  -8    1.59    1.15
  14   7  -8    2.09    0.86
 -13  -7   8   -1.85    0.92
  13  -7  -8   -0.37    0.89
  13   7  -8    1.25    0.74
  12  -7  -8    4.22    1.12
 -12  -7   8    2.40    1.04
  12   7  -8    4.22    0.99
 -11  -7   8    7.47    1.10
  11  -7  -8    9.02    1.29
  11   7  -8    9.64    1.22
 -10  -7   8    5.03    1.01
  10  -7  -8    5.60    0.95
  10   7  -8    5.89    1.07
   9  -7  -8    1.36    0.71
  -9  -7   8    1.80    0.80
   9   7  -8    2.27    0.72
  -8  -7   8    8.39    1.00
   8  -7  -8    7.67    1.05
   8  -7  -8    8.02    0.99
   8   7  -8    8.65    1.14
   7  -7  -8    0.49    0.58
   7  -7  -8    1.49    0.68
  -7  -7   8    1.16    0.64
   7   7  -8    1.40    0.64
   6  -7  -8   26.70    1.35
   6  -7  -8   28.60    1.54
  -6  -7   8   29.05    1.45
   6   7  -8   26.81    1.55
   5  -7  -8   -0.46    0.41
   5  -7  -8    0.38    0.50
  -5  -7   8    0.68    0.46
   5   7  -8    0.23    0.55
   4  -7  -8    1.75    0.55
  -4  -7   8    1.86    0.50
   4  -7  -8    1.74    0.50
   4   7  -8    1.98    0.48
   4   7  -8    1.84    0.61
   3  -7  -8    0.15    0.37
  -3  -7   8   -0.17    0.37
   3  -7  -8    0.17    0.47
   3   7  -8    0.07    0.36
   3   7  -8    0.30    0.47
   2  -7  -8    8.31    0.82
   2  -7  -8    6.39    0.57
   2   7  -8    7.53    0.91
   2   7  -8    7.79    0.82
   1  -7  -8    6.56    0.80
   1   7  -8    6.78    0.83
   1   7  -8    6.82    0.91
   0  -7  -8    3.37    0.68
   0   7  -8    3.14    0.70
   0   7  -8    2.92    0.71
  -1  -7  -8    0.34    0.50
  -1   7  -8    0.74    0.55
  -1   7  -8   -0.14    0.51
  -2  -7  -8    3.62    0.73
  -2   7  -8    4.47    0.82
  -2   7  -8    4.54    0.88
  -3  -7  -8    5.83    0.82
  -3  -7  -8    6.48    0.77
  -3   7  -8    5.32    1.00
  -3   7  -8    6.94    1.02
   4  -7   8    5.55    0.89
  -4  -7  -8    4.51    0.84
  -4  -7  -8    4.31    0.69
  -4   7  -8    4.02    0.94
  -5  -7  -8   39.30    1.84
   5  -7   8   36.80    1.78
  -5  -7  -8   36.46    1.70
  -5   7  -8   41.19    2.23
  -6  -7  -8    3.25    0.67
   6  -7   8    3.48    0.82
  -6  -7  -8    2.77    0.87
  -6   7  -8    3.36    1.04
   7  -7   8    5.00    0.95
  -7  -7  -8    4.98    0.79
  -7   7  -8    6.30    1.19
  -8  -7  -8    7.31    0.92
   8  -7   8    8.43    1.20
  -8   7  -8    7.52    1.32
  -9  -7  -8    4.73    0.93
   9  -7   8    2.81    0.95
  10  -7   8    0.16    0.75
 -10  -7  -8   -0.29    0.71
  11  -7   8   -2.21    0.74
 -11  -7  -8   -1.05    0.71
  12  -7   8    0.80    1.07
 -12  -7  -8   -0.64    0.79
 -16  -8   8   -0.13    1.30
  16   8  -8    1.39    0.88
  15  -8  -8    0.60    1.19
 -15  -8   8    0.68    1.23
  15   8  -8    1.23    0.92
 -14  -8   8   -2.11    1.00
  14  -8  -8   -1.29    0.88
  14   8  -8    2.55    0.96
  13  -8  -8   -0.69    0.99
 -13  -8   8   -1.39    0.96
  13   8  -8    0.24    0.69
 -12  -8   8    0.29    0.97
  12  -8  -8   -0.52    0.81
  12   8  -8    0.61    0.74
 -11  -8   8    0.40    0.86
  11  -8  -8    0.66    0.90
  11   8  -8    0.53    0.67
 -10  -8   8   -0.56    0.64
  10  -8  -8   -0.60    0.64
  10   8  -8    0.42    0.68
   9  -8  -8    1.93    0.82
  -9  -8   8    1.58    0.78
   9   8  -8    1.75    0.70
   8  -8  -8    9.06    1.09
   8  -8  -8    7.50    1.01
  -8  -8   8    6.89    0.93
   8   8  -8    7.37    1.02
   7  -8  -8    5.30    0.89
  -7  -8   8    4.15    0.76
   7  -8  -8    5.89    0.84
   7   8  -8    5.27    0.89
  -6  -8   8    0.52    0.54
   6  -8  -8   -0.33    0.54
   6  -8  -8   -0.83    0.43
   6   8  -8   -0.10    0.52
   5  -8  -8    9.51    0.97
   5  -8  -8   10.42    0.90
  -5  -8   8    8.02    0.80
   5   8  -8   10.14    1.09
  -4  -8   8    3.52    0.57
   4  -8  -8    3.58    0.71
   4  -8  -8    4.44    0.63
   4   8  -8    2.92    0.73
   3  -8  -8    4.41    0.74
   3  -8  -8    5.48    0.60
   3   8  -8    4.45    0.82
   2  -8  -8    0.39    0.47
   2   8  -8    1.37    0.60
   1  -8  -8    0.73    0.54
   1   8  -8   -0.19    0.48
   1   8  -8   -0.43    0.50
   0  -8  -8    0.04    0.49
   0   8  -8    0.68    0.62
   0   8  -8    0.22    0.54
  -1  -8  -8    2.42    0.64
  -1   8  -8    1.07    0.70
  -1   8  -8    0.88    0.68
  -2  -8  -8    3.06    0.70
  -2   8  -8    2.93    0.89
  -2   8  -8    2.27    0.72
  -3  -8  -8    0.50    0.47
  -3  -8  -8    0.62    0.60
  -3   8  -8   -0.01    0.67
  -3   8  -8    0.75    0.64
   4  -8   8    2.92    0.74
  -4  -8  -8    3.20    0.76
  -4  -8  -8    3.02    0.58
  -4   8  -8    1.91    0.82
  -5  -8  -8    2.78    0.80
   5  -8   8    3.12    0.77
  -5  -8  -8    2.06    0.56
  -5   8  -8    2.99    0.96
   6  -8   8    2.60    0.80
  -6  -8  -8    2.78    0.64
  -6   8  -8    4.04    1.02
  -7  -8  -8    7.54    0.98
   7  -8   8   11.10    1.28
   8  -8   8   -0.38    0.62
  -8  -8  -8    0.30    0.56
   9  -8   8    1.06    0.85
  -9  -8  -8    0.36    0.68
 -10  -8  -8   -0.25    0.72
  10  -8   8    0.79    0.83
 -11  -8  -8    0.62    0.73
  11  -8   8   -1.14    0.75
 -15  -9   8   -0.85    1.17
  15   9  -8    3.23    1.01
  14  -9  -8    0.16    1.16
 -14  -9   8   -0.92    1.08
  14   9  -8    1.75    0.94
 -13  -9   8   -0.50    1.06
  13  -9  -8   -0.87    0.89
  13   9  -8    1.54    0.82
  12  -9  -8    1.71    1.08
 -12  -9   8    1.19    1.04
  12   9  -8    1.99    0.88
 -11  -9   8    0.55    0.93
  11  -9  -8    0.87    0.86
  11   9  -8    1.63    0.74
 -10  -9   8    1.77    0.85
  10  -9  -8    1.20    0.90
  10   9  -8    1.56    0.79
   9  -9  -8    0.90    0.73
   9  -9  -8    2.02    0.70
  -9  -9   8    1.07    0.74
   9   9  -8    2.06    0.74
   8  -9  -8   -1.11    0.62
  -8  -9   8    0.24    0.65
   8  -9  -8    0.68    0.65
   8   9  -8    0.48    0.64
   7  -9  -8    9.40    1.10
   7  -9  -8    8.54    0.99
  -7  -9   8    7.97    0.94
   7   9  -8    9.92    1.16
   6  -9  -8    6.19    0.87
  -6  -9   8    4.07    0.70
   6  -9  -8    5.30    0.88
   6   9  -8    5.23    0.90
  -5  -9   8    1.78    0.55
   5  -9  -8    1.55    0.62
   5  -9  -8    2.23    0.59
   5   9  -8    2.06    0.69
   4  -9  -8    3.60    0.62
   4  -9  -8    2.99    0.75
   4   9  -8    2.47    0.67
   3  -9  -8   -0.34    0.53
   3   9  -8    0.18    0.47
   2  -9  -8   10.39    0.98
   2   9  -8    7.60    1.01
   1  -9  -8   30.53    1.54
   1   9  -8   29.05    1.65
   0  -9  -8    6.23    0.84
   0   9  -8    7.91    1.09
  -1  -9  -8    0.44    0.51
  -1   9  -8    0.33    0.58
  -2  -9  -8    6.44    0.89
  -2   9  -8    6.50    1.01
  -3  -9  -8   12.09    1.06
  -3  -9  -8   12.94    1.12
  -3   9  -8   13.74    1.41
   4  -9   8   17.34    1.30
  -4  -9  -8   14.00    1.19
  -4  -9  -8   17.37    1.23
   5  -9   8   12.26    1.13
  -5  -9  -8   13.96    1.19
  -6  -9  -8    0.01    0.46
   6  -9   8    0.69    0.69
   7  -9   8    6.49    1.15
  -7  -9  -8    5.16    0.86
  -8  -9  -8    4.11    0.92
   8  -9   8    3.66    0.94
  -9  -9  -8    1.04    0.77
   9  -9   8    0.67    0.89
 -10  -9  -8   -0.57    0.73
  10  -9   8   -0.03    0.91
 -11  -9  -8   -0.88    0.66
  14 -10  -8   -1.66    0.97
 -14 -10   8   -1.26    0.98
  14  10  -8    0.47    0.69
 -13 -10   8   -2.03    0.83
  13 -10  -8   -0.75    0.90
  13  10  -8    0.99    0.83
 -12 -10   8    0.27    0.90
  12 -10  -8   -1.31    0.92
  12  10  -8    1.91    0.80
 -11 -10   8   -0.98    0.74
  11 -10  -8    0.58    0.85
  11  10  -8    0.21    0.66
  10 -10  -8   -1.61    0.80
 -10 -10   8   -0.14    0.80
  10  10  -8    0.04    0.66
  -9 -10   8    1.48    0.81
   9 -10  -8    4.19    0.88
   9 -10  -8    0.81    0.83
   9  10  -8    2.25    0.84
  -8 -10   8    3.96    0.82
   8 -10  -8    5.20    0.96
   8 -10  -8    3.39    0.90
   8  10  -8    4.09    0.89
   7 -10  -8    0.39    0.66
  -7 -10   8   -0.52    0.54
   7 -10  -8   -0.15    0.59
   7  10  -8   -0.32    0.58
   6 -10  -8    0.14    0.53
  -6 -10   8   -0.02    0.53
   6 -10  -8   -0.62    0.49
   6  10  -8    0.30    0.55
   5 -10  -8    2.26    0.62
   5 -10  -8    2.03    0.72
   5  10  -8    2.10    0.68
   4 -10  -8    0.55    0.57
   4  10  -8    0.13    0.47
   3 -10  -8    0.37    0.51
   3  10  -8   -0.11    0.45
   2 -10  -8    0.01    0.54
   2  10  -8    0.21    0.62
   1 -10  -8    0.81    0.59
   1  10  -8    0.35    0.56
   0 -10  -8    1.20    0.63
   0  10  -8    1.69    0.69
  -1 -10  -8    2.96    0.73
  -1  10  -8    2.78    0.81
  -2 -10  -8    1.21    0.63
  -2  10  -8    1.04    0.66
  -3 -10  -8    1.65    0.52
  -3 -10  -8    0.91    0.65
  -3  10  -8    0.16    0.62
  -4 -10  -8    5.89    0.87
   4 -10   8    6.02    0.95
  -4 -10  -8    4.03    0.99
  -5 -10  -8    1.77    0.58
   5 -10   8    2.93    0.79
  -6 -10  -8    0.15    0.49
   6 -10   8    0.36    0.69
   7 -10   8    1.72    0.80
  -7 -10  -8    2.65    0.75
   8 -10   8    3.42    1.04
  -8 -10  -8    2.12    0.80
   9 -10   8    1.13    0.96
  -9 -10  -8    0.96    0.72
 -10 -10  -8    0.62    0.80
 -14 -11   8   -1.78    0.99
  14  11  -8    2.42    0.89
 -13 -11   8   -0.21    1.06
  13 -11  -8   -1.57    1.01
  13  11  -8    1.58    0.75
 -12 -11   8    1.67    1.01
  12 -11  -8    0.13    0.94
  12  11  -8    2.90    0.87
  11 -11  -8   -0.73    0.94
 -11 -11   8    0.17    0.90
  11  11  -8    3.86    0.96
  10 -11  -8    4.02    0.90
  10 -11  -8    3.92    1.12
 -10 -11   8    1.02    0.84
  10  11  -8    0.58    0.66
  -9 -11   8   -0.60    0.71
   9 -11  -8   -0.20    0.72
   9 -11  -8    0.73    0.62
   9  11  -8    0.10    0.59
  -8 -11   8   -0.19    0.67
   8 -11  -8    1.10    0.82
   8  11  -8    2.16    0.83
   7 -11  -8   25.13    1.67
   7 -11  -8   24.59    1.54
   7  11  -8   23.93    1.71
   6 -11  -8   30.89    1.82
   6 -11  -8   28.24    1.57
   6  11  -8   29.27    1.77
   5 -11  -8   12.34    1.17
   5  11  -8    9.72    1.19
   4 -11  -8    2.91    0.74
   4  11  -8    1.93    0.64
   3 -11  -8    8.40    1.08
   3  11  -8    6.93    1.07
   2 -11  -8    6.48    0.98
   2  11  -8    5.10    0.94
   1 -11  -8   12.21    1.17
   1  11  -8   11.97    1.36
   0 -11  -8    1.06    0.62
   0  11  -8    1.50    0.70
  -1 -11  -8    2.76    0.78
  -1  11  -8    1.47    0.72
  -2 -11  -8    1.18    0.50
  -2 -11  -8    0.96    0.66
  -2  11  -8    1.69    0.76
  -3 -11  -8    0.13    0.63
  -3 -11  -8    1.32    0.57
  -3  11  -8   -0.21    0.70
   4 -11   8    0.84    0.61
  -4 -11  -8    0.66    0.55
  -5 -11  -8    1.35    0.61
   5 -11   8    3.46    0.86
  -6 -11  -8    2.27    0.71
   6 -11   8    4.34    1.03
   7 -11   8    8.80    1.23
  -7 -11  -8    5.60    0.97
   8 -11   8    1.72    0.89
  -8 -11  -8    2.07    0.83
  -9 -11  -8    0.86    0.73
 -13 -12   8    0.04    1.02
  13  12  -8    1.22    0.82
  12 -12  -8   -0.97    1.04
 -12 -12   8   -1.12    0.89
  12  12  -8    1.51    0.81
  11 -12  -8   -1.09    0.96
  11 -12  -8    2.52    0.75
 -11 -12   8   -1.30    0.81
  11  12  -8    0.93    0.78
  10 -12  -8    0.86    0.61
 -10 -12   8   -1.14    0.82
  10 -12  -8   -0.75    0.90
  10  12  -8    0.31    0.75
  -9 -12   8   -0.75    0.74
   9 -12  -8    0.92    0.71
   9 -12  -8   -0.83    0.79
   9  12  -8    0.45    0.71
   8 -12  -8    0.12    0.78
   8 -12  -8    2.18    0.81
   8  12  -8    0.65    0.76
   7 -12  -8    2.73    0.84
   7 -12  -8    0.23    0.79
   7  12  -8    1.17    0.69
   6 -12  -8   -0.12    0.62
   6  12  -8    0.64    0.63
   5 -12  -8    0.62    0.64
   5  12  -8    0.65    0.57
   4 -12  -8   -0.57    0.59
   4  12  -8    0.03    0.66
   3 -12  -8   -0.14    0.58
   3  12  -8    0.81    0.64
   2 -12  -8    0.39    0.63
   2  12  -8   -0.88    0.48
   1 -12  -8    1.15    0.69
   1  12  -8    0.32    0.70
   0 -12  -8    0.20    0.61
   0  12  -8   -0.19    0.54
  -1 -12  -8    1.25    0.67
  -1  12  -8   -0.08    0.62
  -2 -12  -8    0.55    0.65
  -2 -12  -8    1.33    0.54
  -2  12  -8    0.57    0.75
  -3 -12  -8    3.16    0.71
  -3  12  -8    2.11    0.90
   4 -12   8    1.27    0.68
  -4 -12  -8    1.02    0.56
   5 -12   8    1.20    0.70
  -5 -12  -8   -0.01    0.57
  -6 -12  -8   -0.13    0.57
   6 -12   8   -0.19    0.65
   7 -12   8   -0.26    0.71
  -7 -12  -8   -0.13    0.66
  -8 -12  -8    0.14    0.69
  11 -13  -8    0.56    1.16
  11 -13  -8    3.49    0.86
 -11 -13   8    0.46    1.05
  11  13  -8    0.59    0.73
  10 -13  -8   -1.30    0.89
  10 -13  -8    3.21    0.87
  10  13  -8   -0.49    0.69
   9 -13  -8    1.14    0.67
   9 -13  -8   -0.79    0.73
   9  13  -8    0.58    0.73
   8 -13  -8    3.73    0.90
   8  13  -8    1.60    0.81
   7 -13  -8    6.13    1.08
   7  13  -8    4.18    0.90
   6 -13  -8    6.38    1.11
   6  13  -8    3.17    0.85
   5 -13  -8    0.81    0.68
   5  13  -8    0.79    0.66
   4 -13  -8    0.11    0.68
   4  13  -8    1.50    0.75
   3 -13  -8    4.37    1.01
   3  13  -8    2.96    0.88
   2 -13  -8    6.46    1.03
   2  13  -8    6.53    1.17
   1 -13  -8   10.03    1.25
   1  13  -8   10.73    1.34
   0 -13  -8    2.10    0.81
   0  13  -8    0.67    0.73
  -1 -13  -8    2.14    0.81
  -1  13  -8    1.33    0.74
  -2 -13  -8    2.60    0.63
  -2  13  -8    1.59    0.83
  -3 -13  -8    2.66    0.69
  -3  13  -8    2.98    0.90
  -4 -13  -8    3.11    0.79
   4 -13   8    3.63    0.88
  -5 -13  -8    1.55    0.66
   5 -13   8    2.27    0.83
   6 -13   8    0.21    1.29
  -6 -13  -8    1.08    0.71
  -7 -13  -8    5.05    0.97
  10 -14  -8    2.31    0.77
  10  14  -8    0.09    0.75
   9 -14  -8    3.58    0.94
   9  14  -8    1.26    0.83
   8 -14  -8    2.19    0.83
   8  14  -8    1.67    0.81
   7 -14  -8    2.88    0.92
   7  14  -8    1.17    0.79
   6 -14  -8    0.34    0.64
   6  14  -8   -0.20    0.62
   5 -14  -8    0.14    0.60
   5  14  -8   -0.76    0.56
   4 -14  -8    0.48    0.71
   4  14  -8    0.13    0.63
   3 -14  -8    1.08    0.81
   3  14  -8    2.91    0.86
   2 -14  -8    0.54    0.68
   2  14  -8    1.03    0.81
   1 -14  -8    0.21    0.68
   1  14  -8   -0.24    0.63
   0 -14  -8    0.39    0.71
   0  14  -8    1.03    0.82
  -1 -14  -8    2.24    0.62
  -1  14  -8    0.11    0.74
  -2 -14  -8    0.59    0.57
  -2  14  -8   -0.46    0.66
   3 -14   8    2.81    0.82
  -3 -14  -8    0.34    0.55
   4 -14   8    0.60    0.83
  -4 -14  -8    0.35    0.54
  -5 -14  -8   -0.05    0.60
  -6 -14  -8    1.05    0.70
   8 -15  -8    3.19    0.93
   8  15  -8    3.52    1.08
   7 -15  -8    2.92    0.93
   7  15  -8    1.00    0.82
   6 -15  -8    3.80    1.01
   6  15  -8    1.74    0.94
   5 -15  -8    1.02    0.82
   5  15  -8   -0.05    0.71
   4 -15  -8    0.85    0.72
   4  15  -8    0.45    0.80
   3 -15  -8    2.20    0.89
   3  15  -8    1.73    0.92
   2 -15  -8    6.69    1.14
   2  15  -8    4.58    1.13
   1 -15  -8    4.34    1.04
   1  15  -8    2.83    0.94
   0 -15  -8    2.10    0.62
   0  15  -8    1.00    0.87
  -1 -15  -8    0.95    0.56
  -1  15  -8   -0.57    0.74
  -2 -15  -8    2.56    0.76
  -3 -15  -8    3.05    0.79
  -4 -15  -8    1.32    0.63
   5 -16  -8    3.54    1.08
   4 -16  -8    1.74    0.93
   3 -16  -8    1.18    0.91
   2 -16  -8    0.58    0.82
   0 -16  -8    1.27    0.52
  17   0  -9    1.14    0.88
  16   0  -9    0.81    0.86
  15   0  -9    1.27    0.88
  14   0  -9   -0.12    0.76
  13   0  -9   -0.28    0.69
  12   0  -9   -0.41    0.68
  11   0  -9   -0.78    0.65
  10   0  -9   -0.82    0.61
  10   0  -9   -0.46    0.33
   9   0  -9   -0.53    0.57
   9   0  -9    0.08    0.34
   8   0  -9   -0.27    0.30
   8   0  -9    0.42    0.61
   7   0  -9    0.23    0.47
   7   0  -9    0.20    0.31
   6   0  -9    0.01    0.30
   6   0  -9   -0.65    0.38
   5   0  -9    0.24    0.41
   5   0  -9    0.24    0.34
   4   0  -9   -0.09    0.34
   4   0  -9    0.30    0.36
   3   0  -9    0.23    0.37
   3   0  -9   -0.08    0.30
   2   0  -9    0.09    0.37
   2   0  -9   -0.24    0.28
   1   0  -9    0.27    0.45
   1   0  -9   -0.58    0.25
   0   0  -9   -0.04    0.26
   0   0  -9    0.18    0.45
  -1   0  -9   -0.01    0.54
  -1   0  -9   -0.33    0.25
  -2   0  -9   -0.14    0.51
  -3   0  -9   -0.15    0.23
   3   0   9   -0.16    0.25
  -3   0  -9   -0.26    0.59
  -4   0  -9   -0.29    0.63
   4   0   9   -0.28    0.31
  -4   0  -9    0.01    0.27
  -5   0  -9    0.00    0.32
  -5   0  -9   -0.30    0.76
  -6   0  -9   -0.49    0.36
  -6   0  -9    0.10    0.70
  -7   0  -9   -0.02    0.72
  -8   0  -9   -0.51    0.77
  -9   0  -9   -0.40    0.86
 -10   0  -9    0.67    0.92
 -11   0  -9    1.19    0.94
 -12   0  -9    0.32    0.91
  17  -1  -9    0.78    0.93
  17   1  -9    0.53    0.86
  16  -1  -9    2.77    1.13
  16   1  -9    1.31    1.01
  15  -1  -9    6.44    1.22
  15   1  -9    5.93    1.22
  14  -1  -9    6.00    1.21
  14   1  -9    8.26    1.24
  13  -1  -9    1.73    0.90
  13   1  -9   -0.25    0.72
  12  -1  -9    0.44    0.73
  12   1  -9    0.07    0.80
  11  -1  -9   10.91    0.85
  11  -1  -9    8.67    1.13
  11   1  -9    9.70    1.17
  10  -1  -9   16.78    1.41
  10  -1  -9   15.72    0.96
  10   1  -9   14.82    1.35
   9  -1  -9   17.18    0.97
   9  -1  -9   18.83    1.35
   9   1  -9   17.06    0.88
   9   1  -9   17.45    1.27
   8  -1  -9    2.48    0.49
   8  -1  -9    2.73    0.68
   8   1  -9    3.37    0.71
   8   1  -9    3.95    0.50
   7  -1  -9    0.35    0.54
   7  -1  -9    0.05    0.31
   7   1  -9    0.32    0.31
   7   1  -9   -0.25    0.44
   6  -1  -9   13.85    0.93
   6  -1  -9   14.45    0.84
   6   1  -9   14.62    0.78
   6   1  -9   14.42    0.94
   5  -1  -9   45.03    1.56
   5  -1  -9   44.23    1.56
   5   1  -9   45.66    1.64
   5   1  -9   46.21    1.51
   4  -1  -9    8.96    0.67
   4  -1  -9    9.87    0.71
   4   1  -9    9.82    0.74
   4   1  -9   10.03    0.73
   3  -1  -9   22.67    1.04
   3  -1  -9   22.08    0.89
   3   1  -9   20.13    1.02
   3   1  -9   20.94    0.98
   2  -1  -9   42.11    1.31
   2  -1  -9   40.84    1.52
   2   1  -9   42.44    1.56
   2   1  -9   41.19    1.43
   1  -1  -9   47.66    1.41
   1  -1  -9   46.47    1.70
   1   1  -9   48.31    1.56
   1   1  -9   48.78    1.76
   0  -1  -9   31.93    1.39
   0  -1  -9   32.75    1.05
   0   1  -9   33.30    1.44
   0   1  -9   33.67    1.23
  -1  -1  -9   36.62    1.60
  -1  -1  -9   35.31    1.10
  -1   1  -9   36.45    1.31
  -1   1  -9   35.64    1.58
  -2  -1  -9    0.51    0.63
  -2   1  -9    0.41    0.55
   2   1   9    0.79    0.24
  -2   1  -9    0.91    0.38
  -2   1  -9    0.55    0.22
  -3  -1  -9   27.64    1.09
   3  -1   9   26.72    1.06
  -3  -1  -9   27.88    1.56
   3   1   9   26.00    0.91
  -3   1  -9   26.75    0.96
  -3   1  -9   27.72    1.50
  -4  -1  -9   26.40    1.11
   4  -1   9   23.29    1.04
  -4  -1  -9   25.62    1.60
  -4   1  -9   26.25    1.62
  -4   1  -9   23.86    0.97
  -5  -1  -9   11.64    1.23
   5  -1   9   10.23    0.76
  -5  -1  -9   10.65    0.77
  -5   1  -9   11.12    1.27
   6  -1   9    2.00    0.55
  -6  -1  -9    2.96    0.97
  -6  -1  -9    1.58    0.47
  -6   1  -9    1.24    0.79
  -7  -1  -9    1.01    0.75
  -7  -1  -9    1.11    0.51
  -7   1  -9    0.38    0.83
  -8  -1  -9    0.33    0.86
  -8   1  -9    0.56    0.75
  -9  -1  -9   12.09    1.48
  -9   1  -9   12.90    1.58
 -10  -1  -9    3.07    1.04
 -10   1  -9    4.59    1.18
 -11  -1  -9    1.02    0.94
 -11   1  -9    1.65    0.93
 -12   1  -9    0.36    0.94
 -13   1  -9    4.78    1.38
  17  -2  -9    0.58    0.97
  17   2  -9    0.03    0.83
  16  -2  -9    0.34    1.02
  16   2  -9    1.27    0.90
  15  -2  -9    0.65    0.90
  15   2  -9    1.88    1.03
  14  -2  -9   -1.38    0.72
  14   2  -9    0.09    0.87
  13  -2  -9    0.80    0.79
  13   2  -9    0.15    0.83
  12  -2  -9    0.00    0.71
  12  -2  -9    0.71    0.45
  12   2  -9    0.83    0.73
  11  -2  -9    3.71    0.64
  11  -2  -9    2.28    0.89
  11   2  -9    0.89    0.77
  10  -2  -9    5.98    0.75
  10  -2  -9    5.99    1.03
  10   2  -9    5.34    0.93
   9  -2  -9    5.31    0.71
   9  -2  -9    5.17    0.85
   9   2  -9    4.53    0.84
   8  -2  -9    1.35    0.60
   8  -2  -9   -0.26    0.35
   8   2  -9    0.51    0.35
   8   2  -9    0.30    0.59
   7  -2  -9    1.09    0.39
   7  -2  -9    1.08    0.60
   7   2  -9    1.37    0.53
   7   2  -9    1.04    0.36
   6  -2  -9    4.91    0.59
   6  -2  -9    6.34    0.74
   6   2  -9    6.65    0.60
   6   2  -9    5.20    0.68
   5  -2  -9   12.22    0.82
   5  -2  -9   11.58    0.82
   5   2  -9   13.28    0.87
   5   2  -9   13.71    0.78
   4  -2  -9    0.31    0.36
   4  -2  -9    0.99    0.39
   4   2  -9    0.63    0.41
   4   2  -9    0.37    0.39
   3  -2  -9    0.36    0.36
   3  -2  -9    0.63    0.31
   3   2  -9    0.87    0.42
   3   2  -9    1.01    0.41
   2  -2  -9   11.82    0.82
   2  -2  -9   13.65    0.62
   2   2  -9   12.20    0.88
   2   2  -9   11.98    0.79
   1  -2  -9    2.07    0.28
   1  -2  -9    1.89    0.49
   1   2  -9    1.01    0.40
   1   2  -9    1.30    0.49
   0  -2  -9    0.75    0.48
   0  -2  -9    0.04    0.18
   0   2  -9    0.27    0.50
   0   2  -9    0.54    0.37
  -1  -2  -9   15.84    1.03
   1   2   9   13.26    0.47
  -1   2  -9   14.87    1.07
  -1   2  -9   14.56    0.85
  -2  -2  -9    1.97    0.69
  -2   2  -9    1.54    0.23
  -2   2  -9    2.29    0.66
  -2   2  -9    2.17    0.50
  -3  -2  -9    1.66    0.76
  -3  -2  -9    0.62    0.33
   3  -2   9    1.49    0.43
  -3   2  -9    1.47    0.71
  -4  -2  -9    0.47    0.76
   4  -2   9   -0.15    0.39
  -4  -2  -9   -0.23    0.30
  -4   2  -9   -0.37    0.63
   5  -2   9    0.31    0.42
  -5  -2  -9   -0.35    0.33
  -5  -2  -9    0.18    0.69
  -5   2  -9   -0.15    0.68
  -6  -2  -9    0.47    0.83
  -6  -2  -9   -0.29    0.39
   6  -2   9    0.44    0.47
  -6   2  -9   -0.69    0.78
  -7  -2  -9    2.44    0.57
  -7  -2  -9    3.25    0.97
   7  -2   9    1.71    0.62
  -7   2  -9    1.43    0.88
  -8  -2  -9    0.86    0.87
  -8  -2  -9   -0.10    0.44
  -8   2  -9    0.94    0.89
  -9  -2  -9   -0.60    0.56
  -9  -2  -9    1.06    0.90
  -9   2  -9    0.51    0.95
 -10  -2  -9   -0.50    0.82
 -10   2  -9   -0.30    0.89
 -11   2  -9    0.05    0.92
 -12   2  -9    2.09    1.06
 -13   2  -9   -0.43    0.83
  17  -3  -9   -0.23    0.98
  17   3  -9    1.51    1.06
  16  -3  -9    0.92    1.10
  16   3  -9    1.77    0.94
  15  -3  -9    3.46    1.09
  15   3  -9    5.25    1.13
  14  -3  -9    1.16    1.01
  14   3  -9    1.68    0.85
  13  -3  -9    0.50    0.80
  13  -3  -9    0.82    0.68
  13   3  -9   -0.25    0.79
  12  -3  -9    1.57    0.51
  12  -3  -9    2.08    0.85
  12   3  -9    0.34    0.70
  11  -3  -9    4.43    0.96
  11  -3  -9    6.72    0.83
  11   3  -9    5.89    1.08
  10  -3  -9   19.23    1.35
  10  -3  -9   20.06    1.20
  10   3  -9   18.61    1.50
   9  -3  -9    5.11    0.93
   9  -3  -9    7.50    0.82
   9   3  -9    5.63    0.91
   8  -3  -9    2.62    0.68
   8  -3  -9    2.88    0.55
   8   3  -9    1.55    0.60
   7  -3  -9    0.07    0.40
   7  -3  -9    0.58    0.51
   7   3  -9   -0.24    0.45
   7   3  -9    0.07    0.34
   6  -3  -9   17.41    0.97
   6  -3  -9   16.06    0.99
   6   3  -9   15.63    1.02
   6   3  -9   14.29    0.80
   5  -3  -9   69.85    2.04
   5  -3  -9   66.09    2.15
   5   3  -9   62.00    1.94
   5   3  -9   61.19    2.15
   4  -3  -9   51.61    1.81
   4  -3  -9   50.83    1.60
   4   3  -9   49.20    1.68
   4   3  -9   50.50    1.81
   3  -3  -9   18.23    0.98
   3  -3  -9   20.03    0.78
   3   3  -9   13.18    0.89
   3   3  -9   13.30    0.88
   2  -3  -9   22.27    0.81
   2  -3  -9   22.06    1.10
   2   3  -9   22.89    1.15
   2   3  -9   24.39    1.12
   1  -3  -9   22.98    0.69
   1  -3  -9   20.53    1.09
   1   3  -9   18.75    1.09
   1   3  -9   18.54    1.01
   0  -3  -9   26.78    1.26
   0   3  -9   25.19    1.34
   0   3  -9   26.15    1.21
  -1  -3  -9   12.84    0.96
  -1   3  -9    9.87    0.77
  -1   3  -9   11.97    1.07
  -2  -3  -9   11.87    0.99
  -2   3  -9   10.01    0.83
  -2   3  -9   10.27    1.10
  -3  -3  -9    8.38    1.01
  -3  -3  -9    6.59    0.64
  -3   3  -9    7.69    1.08
  -3   3  -9    7.03    0.79
   4  -3   9    8.21    0.76
  -4  -3  -9    8.49    1.06
  -4  -3  -9    8.30    0.75
  -4   3  -9    7.78    1.12
   5  -3   9   11.71    0.91
  -5  -3  -9   11.63    1.24
  -5  -3  -9   11.66    0.89
  -5   3  -9   10.36    1.24
   6  -3   9    2.19    0.62
  -6  -3  -9    1.20    0.86
  -6  -3  -9    1.95    0.54
  -6   3  -9    2.29    0.82
  -7  -3  -9    0.43    0.72
  -7  -3  -9   -0.38    0.45
   7  -3   9    0.18    0.52
  -7   3  -9    0.17    0.82
  -8  -3  -9    1.70    0.89
  -8  -3  -9    1.25    0.55
   8  -3   9    1.24    0.64
  -8   3  -9    1.20    0.83
  -9  -3  -9    6.75    0.91
  -9  -3  -9    6.79    1.19
  -9   3  -9    9.32    1.49
 -10  -3  -9    3.90    0.85
 -10  -3  -9    6.05    1.24
 -10   3  -9    7.66    1.35
 -11   3  -9    0.93    0.94
 -12   3  -9    0.39    1.01
 -13   3  -9    6.75    1.39
  17   4  -9    0.52    0.95
  16  -4  -9    1.27    1.03
  16   4  -9    1.77    0.96
  15  -4  -9    0.81    0.94
  15   4  -9    1.59    0.88
  14  -4  -9   -1.00    0.91
  14   4  -9    1.04    0.90
  13  -4  -9    4.58    0.76
  13  -4  -9    1.85    0.90
  13   4  -9    1.25    0.80
  12  -4  -9    1.66    0.56
  12  -4  -9    2.00    0.93
  12   4  -9    1.00    0.71
  11  -4  -9   -0.17    0.79
  11  -4  -9    0.34    0.48
  11   4  -9   -0.53    0.59
  10  -4  -9    1.72    0.59
  10  -4  -9    2.55    0.87
  10   4  -9    0.78    0.68
   9  -4  -9    0.38    0.66
   9  -4  -9    0.05    0.51
   9   4  -9   -0.12    0.56
   8  -4  -9    9.95    0.88
   8  -4  -9   11.76    1.11
   8   4  -9   11.07    1.05
   7  -4  -9   17.60    1.12
   7  -4  -9   17.88    1.09
   7   4  -9   16.95    1.22
   6  -4  -9    1.08    0.45
   6  -4  -9    1.34    0.54
   6   4  -9    0.60    0.35
   6   4  -9   -0.03    0.47
   5  -4  -9    1.12    0.47
   5  -4  -9    0.09    0.37
   5   4  -9    0.63    0.38
   5   4  -9    0.68    0.47
   4  -4  -9    4.74    0.55
   4  -4  -9    4.24    0.63
   4   4  -9    4.90    0.60
   4   4  -9    4.45    0.68
   3  -4  -9    0.99    0.44
   3  -4  -9    1.07    0.35
   3   4  -9    0.45    0.41
   3   4  -9    0.57    0.41
   2  -4  -9    3.56    0.59
   2  -4  -9    3.32    0.36
   2   4  -9    6.49    0.71
   1   4  -9    7.86    0.84
   1   4  -9    8.92    0.87
   0   4  -9    0.18    0.46
   0   4  -9    0.14    0.45
  -1  -4  -9   10.05    0.89
  -1   4  -9    7.66    0.83
  -1   4  -9    6.26    0.86
  -2  -4  -9    2.96    0.67
  -2   4  -9    1.76    0.68
  -2   4  -9    2.24    0.62
  -3  -4  -9    2.25    0.73
  -3  -4  -9    2.18    0.48
  -3   4  -9    1.55    0.79
  -3   4  -9    2.16    0.66
  -4  -4  -9    0.55    0.42
  -4  -4  -9    0.74    0.75
   4  -4   9   -0.43    0.43
  -4   4  -9    0.00    0.72
  -5  -4  -9    0.88    0.84
   5  -4   9    1.00    0.56
  -5  -4  -9    1.12    0.49
  -5   4  -9    1.26    0.76
  -6  -4  -9    2.20    0.91
   6  -4   9    2.88    0.64
  -6  -4  -9    2.61    0.57
  -6   4  -9    2.84    0.87
  -7  -4  -9    0.70    0.53
   7  -4   9    0.53    0.60
  -7  -4  -9    1.38    0.87
  -7   4  -9    1.57    0.80
  -8  -4  -9    0.59    0.85
   8  -4   9    0.39    0.61
  -8  -4  -9    1.10    0.58
  -8   4  -9    1.65    0.97
   9  -4   9    0.66    0.70
  -9  -4  -9    1.68    0.92
  -9  -4  -9    0.97    0.65
  -9   4  -9    2.30    1.05
 -10  -4  -9   -0.71    0.62
 -10   4  -9    0.82    0.90
 -11  -4  -9   -0.69    0.69
 -11   4  -9    0.87    0.92
 -12   4  -9    2.99    1.23
  17   5  -9    0.33    1.07
  16  -5  -9   -1.10    0.91
  16   5  -9    0.28    0.77
  15  -5  -9    2.18    1.09
  15   5  -9    3.77    1.10
  14  -5  -9    2.88    1.09
  14   5  -9    1.65    0.85
  13  -5  -9    2.36    0.96
  13   5  -9    3.22    0.94
  12  -5  -9    2.50    0.99
 -12  -5   9    1.37    0.89
  12  -5  -9    3.30    0.75
  12   5  -9    2.51    0.89
  11  -5  -9    1.03    0.79
 -11  -5   9    1.35    0.91
  11  -5  -9    3.36    0.73
  11   5  -9    1.96    0.77
  10  -5  -9    0.41    0.71
  10  -5  -9    0.75    0.57
 -10  -5   9    0.08    0.79
  10   5  -9    0.05    0.62
   9  -5  -9    0.07    0.49
   9  -5  -9    0.26    0.72
  -9  -5   9    0.37    0.78
   9   5  -9   -0.26    0.57
   8  -5  -9    0.94    0.62
   8  -5  -9    0.30    0.47
  -8  -5   9    0.84    0.67
   8   5  -9    1.02    0.65
   7  -5  -9   21.64    1.25
   7  -5  -9   21.60    1.25
  -7  -5   9   25.17    1.42
   7   5  -9   19.48    1.35
   6  -5  -9   31.53    1.39
   6  -5  -9   35.16    1.59
   6   5  -9   30.46    1.54
   5  -5  -9   10.57    0.94
   5  -5  -9   12.12    0.83
   5   5  -9   11.03    0.74
   5   5  -9   11.08    1.06
   4  -5  -9   26.27    1.10
   4  -5  -9   27.57    1.36
   4   5  -9   25.37    1.15
   4   5  -9   25.30    1.31
   3  -5  -9   -0.60    0.31
   3  -5  -9    0.01    0.38
   3   5  -9   -0.16    0.39
   3   5  -9   -0.09    0.37
   2  -5  -9    2.56    0.36
   2  -5  -9    2.04    0.53
   1  -5  -9   15.04    0.98
   1   5  -9   13.27    1.04
   1   5  -9   13.45    1.04
   0  -5  -9   29.01    1.39
   0   5  -9   30.20    1.44
   0   5  -9   29.76    1.47
  -1  -5  -9   42.78    1.77
  -1   5  -9   41.82    1.91
  -1   5  -9   43.13    1.78
  -2  -5  -9    4.12    0.77
  -2   5  -9    4.85    0.81
  -2   5  -9    4.39    0.87
  -3  -5  -9    0.02    0.66
  -3   5  -9   -0.14    0.65
  -3   5  -9    0.87    0.64
  -4  -5  -9   27.15    1.61
   4  -5   9   26.88    1.40
  -4  -5  -9   28.64    1.39
  -4   5  -9   28.03    1.72
  -5  -5  -9   10.90    0.90
  -5  -5  -9    8.55    1.08
   5  -5   9   11.45    1.01
  -5   5  -9   11.93    1.37
  -6  -5  -9    1.25    0.49
   6  -5   9    2.25    0.63
  -6  -5  -9    2.66    0.95
  -6   5  -9    0.59    0.71
  -7  -5  -9    1.98    0.61
  -7  -5  -9    2.26    0.94
   7  -5   9    1.24    0.61
  -7   5  -9    2.11    0.89
  -8  -5  -9    2.55    0.72
  -8  -5  -9    2.80    1.00
   8  -5   9    2.42    0.78
  -8   5  -9    2.27    0.94
  -9  -5  -9    9.57    1.14
   9  -5   9   13.22    1.38
  -9   5  -9   12.68    1.67
 -10  -5  -9    1.70    0.79
  10  -5   9    2.84    0.97
 -10   5  -9    4.44    1.25
 -11  -5  -9   -0.81    0.65
 -11   5  -9    0.69    1.06
 -12  -5  -9   -1.30    0.70
 -12   5  -9    2.93    1.26
  16  -6  -9   -1.42    0.95
  16   6  -9    1.92    0.99
  15  -6  -9   -0.31    0.96
  15   6  -9    1.95    0.89
 -14  -6   9    0.11    1.09
  14  -6  -9    0.53    1.06
  14   6  -9    1.00    0.88
  13  -6  -9    2.47    1.01
 -13  -6   9    1.21    1.08
  13   6  -9    2.41    0.96
 -12  -6   9    3.76    1.02
  12  -6  -9    4.12    1.02
  12   6  -9    4.95    1.00
 -11  -6   9    3.04    0.92
  11  -6  -9    3.38    0.75
  11  -6  -9    2.73    0.89
  11   6  -9    3.17    0.89
 -10  -6   9    0.19    0.68
  10  -6  -9    0.15    0.51
  10  -6  -9   -0.05    0.76
  10   6  -9   -0.19    0.60
   9  -6  -9    0.29    0.64
  -9  -6   9   -0.04    0.73
   9  -6  -9    0.28    0.54
   9   6  -9    0.31    0.63
   8  -6  -9    1.27    0.65
  -8  -6   9    1.54    0.73
   8  -6  -9    0.93    0.57
   8   6  -9    1.23    0.69
   7  -6  -9   39.86    1.83
  -7  -6   9   40.74    1.78
   7  -6  -9   39.94    1.68
   7   6  -9   36.51    1.80
   6  -6  -9    1.20    0.58
  -6  -6   9    2.35    0.62
   6  -6  -9    1.51    0.59
   6   6  -9    1.04    0.58
   5  -6  -9    0.33    0.45
  -5  -6   9    0.28    0.51
   5  -6  -9    0.89    0.49
   5   6  -9    0.06    0.55
   4  -6  -9   -0.12    0.39
   4  -6  -9   -0.49    0.39
   4   6  -9   -0.20    0.35
   4   6  -9   -0.22    0.49
   3  -6  -9   -0.01    0.35
   3  -6  -9    0.99    0.53
   3   6  -9    0.26    0.48
   3   6  -9   -0.37    0.40
   2  -6  -9   10.28    0.90
   2  -6  -9    8.58    0.59
   2   6  -9    9.33    0.91
   2   6  -9    8.66    0.86
   1  -6  -9    0.21    0.45
   1   6  -9    0.19    0.57
   1   6  -9   -0.17    0.49
   0  -6  -9   -0.06    0.52
   0   6  -9   -0.90    0.52
   0   6  -9    0.25    0.50
  -1  -6  -9    7.34    0.90
  -1   6  -9    7.09    0.96
  -1   6  -9    7.97    0.96
  -2  -6  -9    3.27    0.73
  -2   6  -9    2.16    0.76
  -2   6  -9    2.80    0.76
  -3  -6  -9    0.29    0.39
  -3  -6  -9    0.26    0.58
  -3   6  -9    0.50    0.65
  -3   6  -9   -0.14    0.62
  -4  -6  -9    1.90    0.71
  -4  -6  -9    2.05    0.52
   4  -6   9    2.73    0.69
  -4   6  -9    1.76    0.81
  -5  -6  -9    0.38    0.41
  -5  -6  -9   -0.05    0.71
   5  -6   9   -0.53    0.48
  -5   6  -9   -0.82    0.61
  -6  -6  -9    0.68    0.84
  -6  -6  -9    0.45    0.51
   6  -6   9   -0.29    0.56
  -6   6  -9    0.38    0.74
   7  -6   9    3.97    0.87
  -7  -6  -9    2.59    0.96
  -7  -6  -9    2.91    0.67
  -7   6  -9    3.04    1.06
  -8  -6  -9    1.67    0.68
  -8   6  -9    3.31    1.03
  -9  -6  -9   -0.30    0.62
   9  -6   9    0.62    0.77
  -9   6  -9    0.28    0.95
  10  -6   9   -0.17    0.78
 -10  -6  -9   -0.74    0.63
 -10   6  -9    0.61    0.89
  11  -6   9   -0.03    1.33
 -11  -6  -9    0.37    0.77
 -11   6  -9    1.73    1.02
 -12  -6  -9    2.25    0.97
  16   7  -9    1.75    0.96
  15  -7  -9    0.81    1.07
 -15  -7   9   -0.82    0.99
  15   7  -9    1.78    0.92
 -14  -7   9   -0.37    1.10
  14  -7  -9   -0.72    0.89
  14   7  -9    0.06    0.71
  13  -7  -9   -0.56    0.96
 -13  -7   9    0.07    1.01
  13   7  -9    0.01    0.77
 -12  -7   9    0.28    0.97
  12  -7  -9   -0.59    0.93
  12   7  -9    0.29    0.67
  11  -7  -9    3.10    0.73
 -11  -7   9    0.77    0.81
  11  -7  -9    2.75    0.96
  11   7  -9    3.99    0.99
 -10  -7   9    4.34    0.90
  10  -7  -9    6.11    0.98
  10  -7  -9    5.13    0.94
  10   7  -9    6.33    1.04
  -9  -7   9    3.04    0.84
   9  -7  -9    3.90    0.81
   9  -7  -9    5.07    0.90
   9   7  -9    4.36    0.96
   8  -7  -9    8.52    1.09
  -8  -7   9    7.39    0.97
   8  -7  -9    7.65    1.02
   8   7  -9    9.30    1.18
  -7  -7   9    0.38    0.62
   7  -7  -9   -0.13    0.57
   7  -7  -9    0.61    0.61
   7   7  -9   -0.01    0.56
   6  -7  -9    1.70    0.66
   6  -7  -9    1.90    0.59
  -6  -7   9    1.91    0.63
   6   7  -9    1.77    0.65
  -5  -7   9    6.74    0.76
   5  -7  -9    8.86    0.85
   5  -7  -9    6.40    0.86
   5   7  -9    7.10    0.93
   4  -7  -9    4.05    0.60
  -4  -7   9    4.11    0.59
   4  -7  -9    3.85    0.71
   4   7  -9    5.36    0.87
   4   7  -9    4.88    0.70
   3  -7  -9    1.94    0.45
   3  -7  -9    2.56    0.68
   3   7  -9    2.37    0.69
   3   7  -9    1.97    0.56
   2  -7  -9   -0.61    0.46
   2   7  -9    0.30    0.49
   2   7  -9   -0.03    0.49
   1  -7  -9   -0.18    0.46
   1   7  -9   -0.04    0.51
   1   7  -9   -0.45    0.53
   0  -7  -9    0.29    0.55
   0   7  -9    0.51    0.60
   0   7  -9    0.01    0.52
  -1  -7  -9    3.52    0.74
  -1   7  -9    4.56    0.82
  -1   7  -9    4.87    0.94
  -2  -7  -9    0.32    0.59
  -2   7  -9   -0.52    0.71
  -2   7  -9    1.05    0.63
  -3  -7  -9    0.46    0.46
  -3  -7  -9   -0.12    0.60
  -3   7  -9   -0.77    0.61
  -3   7  -9   -0.36    0.64
   4  -7   9   21.67    1.35
  -4  -7  -9   20.44    1.23
  -4  -7  -9   19.08    1.39
  -4   7  -9   22.02    1.69
  -5  -7  -9   -1.08    0.63
   5  -7   9    0.18    0.57
  -5  -7  -9    0.71    0.49
  -5   7  -9   -0.47    0.65
  -6  -7  -9    9.82    1.24
   6  -7   9    9.65    1.14
  -6  -7  -9    7.27    0.89
  -6   7  -9    9.67    1.38
  -7  -7  -9    0.19    0.55
   7  -7   9    0.50    0.69
  -7   7  -9    1.47    0.89
  -8  -7  -9    0.95    0.68
   8  -7   9    1.59    0.82
  -8   7  -9    2.95    1.12
  -9  -7  -9    0.89    0.69
   9  -7   9    1.36    0.87
  -9   7  -9    2.58    1.12
  10  -7   9    0.12    0.78
 -10  -7  -9   -0.80    0.62
 -11  -7  -9   -0.56    0.65
  11  -7   9    0.67    0.94
 -16  -8   9    0.12    1.23
 -15  -8   9   -1.17    1.01
  15  -8  -9   -2.04    1.09
  15   8  -9    2.29    0.98
 -14  -8   9    0.71    0.96
  14  -8  -9   -0.11    1.07
  14   8  -9    0.82    0.80
  13  -8  -9    3.93    1.13
 -13  -8   9    4.43    1.27
  13   8  -9    6.41    1.20
  12  -8  -9    7.52    1.03
  12  -8  -9    2.57    1.02
 -12  -8   9    3.93    1.07
  12   8  -9    6.27    1.09
 -11  -8   9    2.73    1.03
  11  -8  -9    4.67    0.89
  11   8  -9    4.87    1.04
 -10  -8   9    0.38    0.81
  10  -8  -9    1.27    0.85
  10  -8  -9    1.39    0.72
  10   8  -9    0.94    0.68
  -9  -8   9    0.77    0.76
   9  -8  -9    0.61    0.64
   9  -8  -9   -0.57    0.66
   9   8  -9    0.36    0.68
   8  -8  -9    2.39    0.75
   8  -8  -9    3.30    0.76
  -8  -8   9    3.31    0.81
   8   8  -9    3.50    0.83
   7  -8  -9    5.26    0.85
   7  -8  -9    5.14    0.87
  -7  -8   9    4.72    0.80
   7   8  -9    5.00    0.96
   6  -8  -9   -0.61    0.43
  -6  -8   9   -0.36    0.53
   6  -8  -9   -0.01    0.56
   6   8  -9    0.04    0.62
   5  -8  -9   -0.14    0.48
   5  -8  -9   -0.23    0.51
  -5  -8   9   -0.71    0.49
   5   8  -9    0.26    0.57
   4  -8  -9    0.02    0.58
   4  -8  -9    0.83    0.50
   4   8  -9    0.73    0.54
   3  -8  -9    2.01    0.64
   3   8  -9    3.58    0.81
   3   8  -9    3.46    0.64
   2  -8  -9    0.60    0.60
   2   8  -9    0.98    0.55
   2   8  -9    1.55    0.67
   1  -8  -9    1.67    0.60
   1   8  -9    3.54    0.84
   1   8  -9    3.56    0.74
   0  -8  -9    2.45    0.68
   0   8  -9   -0.05    0.63
   0   8  -9    0.51    0.63
  -1  -8  -9    3.14    0.72
  -1   8  -9    4.05    0.92
  -1   8  -9    5.29    0.92
  -2  -8  -9    4.87    0.84
  -2   8  -9    4.99    1.01
  -2   8  -9    4.92    0.90
  -3  -8  -9    3.08    0.60
  -3  -8  -9    3.07    0.71
  -3   8  -9    2.78    0.88
  -3   8  -9    2.52    0.81
  -4  -8  -9   26.32    1.45
  -4  -8  -9   21.37    1.46
   4  -8   9   24.04    1.48
  -4   8  -9   21.27    1.67
  -5  -8  -9    0.35    0.46
  -5  -8  -9   -0.80    0.67
   5  -8   9   -0.62    0.48
  -5   8  -9   -0.71    0.78
   6  -8   9   14.52    1.31
  -6  -8  -9   14.13    1.25
  -6   8  -9   15.72    1.57
   7  -8   9    1.69    0.80
  -7  -8  -9    0.62    0.53
  -7   8  -9    1.03    0.95
  -8  -8  -9    1.12    0.71
   8  -8   9    2.34    0.81
  -9  -8  -9    0.22    0.68
   9  -8   9   -0.62    0.75
 -10  -8  -9   -0.51    0.68
  10  -8   9    0.42    0.81
  11  -8   9   -0.36    0.94
 -11  -8  -9   -0.56    0.77
 -15  -9   9   -1.00    1.17
  15   9  -9    1.55    0.82
  14  -9  -9   -0.70    0.96
 -14  -9   9   -0.55    1.13
  14   9  -9    2.64    0.95
 -13  -9   9   -1.13    1.02
  13  -9  -9   -0.60    1.03
  13   9  -9    0.90    0.83
  12  -9  -9    1.60    0.68
 -12  -9   9   -1.28    0.77
  12  -9  -9   -0.48    0.95
  12   9  -9    1.03    0.81
  11  -9  -9    0.93    0.68
  11  -9  -9   -0.97    0.82
 -11  -9   9    0.52    0.93
  11   9  -9    0.38    0.64
  10  -9  -9    0.27    0.59
  10  -9  -9   -0.39    0.71
 -10  -9   9    0.04    0.78
  10   9  -9    0.51    0.62
   9  -9  -9    0.99    0.72
   9  -9  -9    3.36    0.80
  -9  -9   9    2.08    0.81
   9   9  -9    2.07    0.74
  -8  -9   9   -0.96    0.63
   8  -9  -9   -0.01    0.59
   8  -9  -9   -0.38    0.63
   8   9  -9    0.37    0.58
   7  -9  -9    0.15    0.54
  -7  -9   9    0.48    0.62
   7  -9  -9    0.79    0.63
   7   9  -9    0.73    0.62
  -6  -9   9    4.22    0.73
   6  -9  -9    4.94    0.89
   6  -9  -9    2.67    0.70
   6   9  -9    5.83    0.94
   5  -9  -9    2.37    0.65
   5  -9  -9    2.50    0.74
   5   9  -9    2.58    0.76
   4  -9  -9    0.48    0.56
   4   9  -9    1.20    0.60
   3  -9  -9   -0.03    0.49
   3   9  -9    2.33    0.64
   2  -9  -9    0.11    0.51
   2   9  -9   -0.34    0.50
   1  -9  -9    0.59    0.61
   1   9  -9    1.92    0.69
   0  -9  -9    3.46    0.76
   0   9  -9    2.84    0.77
   0   9  -9    1.46    0.69
  -1  -9  -9    0.60    0.60
  -1   9  -9   -0.16    0.68
  -1   9  -9   -0.21    0.62
  -2  -9  -9    0.56    0.59
  -2   9  -9    1.22    0.67
  -2   9  -9    0.46    0.76
  -3  -9  -9    1.79    0.55
  -3  -9  -9    1.29    0.70
  -3   9  -9    2.86    0.88
  -3   9  -9    0.69    0.76
  -4  -9  -9    1.70    0.75
  -4  -9  -9    2.32    0.61
   4  -9   9    4.85    0.91
  -4   9  -9    2.50    1.04
   5  -9   9    0.51    0.65
  -5  -9  -9    1.30    0.54
   6  -9   9    4.14    0.94
  -6  -9  -9    5.14    0.89
  -7  -9  -9   -0.68    0.46
   7  -9   9   -0.31    0.69
  -8  -9  -9   -0.15    0.56
   8  -9   9    0.70    0.74
  -9  -9  -9    0.30    0.63
   9  -9   9    1.48    0.96
 -10  -9  -9    0.71    0.75
  10  -9   9   -0.33    0.91
  14 -10  -9   -2.04    1.07
  14 -10  -9    2.84    0.72
 -14 -10   9   -0.93    1.04
  14  10  -9    1.56    0.87
  13 -10  -9    4.02    0.90
  13 -10  -9    0.76    1.05
 -13 -10   9   -1.34    1.00
  13  10  -9    3.26    0.96
  12 -10  -9    3.42    0.84
  12 -10  -9    2.04    1.12
 -12 -10   9    0.92    1.06
  12  10  -9    2.47    0.87
  11 -10  -9    3.42    0.88
 -11 -10   9    0.60    0.95
  11 -10  -9    0.62    0.87
  11  10  -9    2.73    0.92
  10 -10  -9    1.51    0.74
 -10 -10   9    1.21    0.90
  10 -10  -9   -0.05    0.82
  10  10  -9    0.77    0.71
   9 -10  -9   -0.53    0.76
   9 -10  -9    1.15    0.74
  -9 -10   9   -0.24    0.73
   9  10  -9    0.42    0.71
   8 -10  -9    7.56    1.08
  -8 -10   9    6.31    0.99
   8 -10  -9    9.78    1.17
   8  10  -9    8.36    1.16
  -7 -10   9   11.36    1.63
   7 -10  -9   13.31    1.19
   7 -10  -9   13.47    1.30
   7  10  -9   14.16    1.29
   6 -10  -9    2.45    0.73
   6 -10  -9    1.41    0.64
   6  10  -9    2.28    0.82
   5 -10  -9    7.64    1.07
   5  10  -9    4.49    0.80
   4 -10  -9    1.27    0.68
   4  10  -9    0.26    0.43
   3 -10  -9    0.95    0.59
   3  10  -9    1.18    0.62
   2 -10  -9   11.21    1.14
   2  10  -9   10.68    1.20
   1 -10  -9    1.56    0.65
   1  10  -9    2.15    0.70
   0 -10  -9    0.01    0.59
   0  10  -9    0.83    0.63
  -1 -10  -9    1.88    0.68
  -1  10  -9    1.96    0.75
  -2 -10  -9    5.11    0.87
  -2  10  -9    5.57    0.99
  -3 -10  -9    5.37    0.92
  -3 -10  -9    7.61    0.95
  -3  10  -9    5.16    1.05
  -4 -10  -9    4.26    0.75
  -4 -10  -9    3.41    0.88
   4 -10   9    5.87    0.95
   5 -10   9    1.75    0.70
  -5 -10  -9    0.72    0.56
   6 -10   9    4.44    1.03
  -6 -10  -9    4.47    0.85
  -7 -10  -9    2.46    0.71
   7 -10   9    3.03    0.87
  -8 -10  -9    0.56    0.64
   8 -10   9    0.72    0.87
  -9 -10  -9    0.76    0.78
   9 -10   9   -1.43    0.80
  13 -11  -9    4.07    0.88
 -13 -11   9   -1.43    0.96
  13 -11  -9   -1.26    1.09
  13  11  -9    1.04    0.82
  12 -11  -9    2.86    0.80
  12 -11  -9   -0.46    0.89
 -12 -11   9   -0.35    1.00
  12  11  -9    0.53    0.72
 -11 -11   9    0.39    0.98
  11 -11  -9    1.64    0.73
  11 -11  -9    0.00    0.98
  11  11  -9    0.65    0.68
  10 -11  -9   -0.31    0.74
 -10 -11   9   -0.94    0.82
  10 -11  -9    1.66    0.76
  10  11  -9    0.70    0.77
   9 -11  -9    1.44    0.76
   9 -11  -9   -1.00    0.75
  -9 -11   9   -1.07    0.71
   9  11  -9    1.06    0.76
   8 -11  -9   -1.80    0.66
   8 -11  -9    0.34    0.65
   8  11  -9    0.80    0.71
   7 -11  -9    0.19    0.56
   7 -11  -9   -0.61    0.78
   7  11  -9    0.41    0.64
   6 -11  -9    0.84    0.64
   6  11  -9    0.49    0.52
   5 -11  -9   -0.28    0.60
   5  11  -9    0.44    0.44
   4 -11  -9    1.48    0.71
   4  11  -9   -0.11    0.36
   3 -11  -9   -0.14    0.53
   3  11  -9    0.32    0.53
   2 -11  -9   -0.08    0.50
   2  11  -9   -0.27    0.53
   1 -11  -9    1.24    0.72
   1  11  -9    1.29    0.67
   0 -11  -9    0.04    0.62
   0  11  -9   -0.19    0.64
  -1 -11  -9    0.74    0.66
  -1  11  -9    0.35    0.64
  -2 -11  -9    1.95    0.80
  -2  11  -9    2.68    0.88
  -3 -11  -9   -0.21    0.41
  -3 -11  -9   -0.16    0.62
  -3  11  -9    0.10    0.78
   4 -11   9    1.24    0.65
  -4 -11  -9    0.71    0.50
  -5 -11  -9   -0.41    0.52
   5 -11   9    0.11    0.62
  -6 -11  -9    0.67    0.63
   6 -11   9    0.24    0.78
   7 -11   9    0.82    0.79
  -7 -11  -9   -0.17    0.60
  -8 -11  -9   -0.41    0.59
   8 -11   9    0.69    0.81
  -9 -11  -9   -0.52    0.73
  12 -12  -9    0.77    1.15
  12 -12  -9    4.10    0.97
 -12 -12   9   -0.88    1.05
  12  12  -9    1.75    0.83
  11 -12  -9   -1.23    0.95
 -11 -12   9   -1.41    0.90
  11 -12  -9    2.89    0.82
  11  12  -9    1.04    0.73
  10 -12  -9    0.96    0.63
  10 -12  -9   -1.49    0.85
  10  12  -9    0.16    0.71
   9 -12  -9   -0.80    0.84
   9 -12  -9    2.57    0.87
   9  12  -9    0.95    0.78
   8 -12  -9    5.14    1.03
   8  12  -9    3.12    0.81
   7 -12  -9    6.85    1.10
   7  12  -9    3.42    0.84
   6 -12  -9    1.82    0.75
   6  12  -9    1.12    0.55
   5 -12  -9    1.19    0.74
   5  12  -9    0.93    0.54
   4 -12  -9    2.58    0.80
   4  12  -9    2.19    0.80
   3 -12  -9    3.40    0.92
   3  12  -9    3.58    0.94
   2 -12  -9    3.76    0.86
   2  12  -9    5.47    1.07
   1 -12  -9    2.82    0.83
   1  12  -9    1.99    0.84
   0 -12  -9    0.72    0.64
   0  12  -9    0.77    0.65
  -1 -12  -9    5.85    0.96
  -1  12  -9    4.04    0.96
  -2 -12  -9   11.08    1.18
  -2 -12  -9   11.13    1.28
  -2  12  -9   10.62    1.39
  -3 -12  -9    6.48    0.93
  -3  12  -9    4.66    1.14
  -4 -12  -9    2.77    0.78
   4 -12   9    4.91    0.95
  -5 -12  -9    0.48    0.63
   5 -12   9    0.80    0.70
   6 -12   9    3.92    0.98
  -6 -12  -9    3.04    0.80
  -7 -12  -9    3.03    0.86
  11 -13  -9   -2.82    0.91
  11 -13  -9    1.39    0.65
  11  13  -9    1.30    0.88
  10 -13  -9    1.66    0.74
  10 -13  -9   -1.26    1.58
  10  13  -9    0.48    0.77
   9 -13  -9    2.26    0.84
   9  13  -9    1.08    0.74
   8 -13  -9    1.46    0.78
   8  13  -9    0.55    0.56
   7 -13  -9    0.24    0.61
   7  13  -9    0.23    0.57
   6 -13  -9    0.90    0.69
   6  13  -9   -0.30    0.40
   5 -13  -9   -1.03    0.54
   5  13  -9   -0.21    0.59
   4 -13  -9   -0.39    0.64
   4  13  -9   -0.09    0.67
   3 -13  -9    0.24    0.64
   3  13  -9   -0.59    0.56
   2 -13  -9    0.80    0.76
   2  13  -9    0.86    0.77
   1 -13  -9    0.22    0.71
   1  13  -9    0.13    0.72
   0 -13  -9   -0.59    0.62
   0  13  -9    0.30    0.70
  -1 -13  -9   -0.16    0.68
  -1  13  -9    0.35    0.69
  -2 -13  -9    1.20    0.57
  -2  13  -9   -0.22    0.67
  -3 -13  -9    0.29    0.57
  -3  13  -9   -0.35    0.68
   4 -13   9    2.40    0.77
  -4 -13  -9    1.09    0.59
  -5 -13  -9    1.19    0.69
   5 -13   9    2.65    0.90
  -6 -13  -9   -0.62    0.51
  10 -14  -9    1.51    0.78
  10  14  -9   -0.18    1.28
   9 -14  -9    4.40    0.99
   9  14  -9    2.53    0.95
   8 -14  -9    3.51    0.96
   8  14  -9    3.46    0.97
   7 -14  -9    4.84    1.11
   7  14  -9    3.43    0.97
   6 -14  -9    1.16    0.76
   6  14  -9    0.58    0.76
   5 -14  -9   -0.27    0.69
   5  14  -9    0.33    0.69
   4 -14  -9    0.25    0.74
   4  14  -9    0.55    0.68
   3 -14  -9    2.93    0.94
   3  14  -9    2.78    0.93
   2 -14  -9    5.13    1.03
   2  14  -9    4.86    1.13
   1 -14  -9    0.73    0.75
   1  14  -9    0.98    0.74
   0 -14  -9    1.67    0.86
   0  14  -9    1.96    0.91
  -1 -14  -9    2.89    0.73
  -1  14  -9    1.74    0.89
  -2 -14  -9    2.87    0.72
  -2  14  -9    2.89    0.98
  -3 -14  -9    2.83    0.81
   3 -14   9    5.05    1.24
  -4 -14  -9    1.54    0.68
  -5 -14  -9   -0.09    0.53
   8 -15  -9    6.70    1.23
   7 -15  -9    2.39    0.92
   7  15  -9    1.71    1.09
   6 -15  -9   -0.03    0.79
   6  15  -9   -0.17    0.76
   5 -15  -9    1.41    0.91
   5  15  -9    0.42    0.75
   4 -15  -9   -0.13    0.69
   4  15  -9   -0.30    0.76
   3 -15  -9   -0.49    0.69
   3  15  -9    0.66    0.84
   2 -15  -9    1.32    0.81
   2  15  -9    1.00    0.84
   1 -15  -9   -0.03    0.80
   1  15  -9    0.41    0.76
   0  15  -9    0.83    0.83
  -1 -15  -9    1.24    0.54
  -2 -15  -9    1.33    0.58
  -3 -15  -9    0.23    0.60
   3 -16  -9    0.99    0.82
   2 -16  -9    0.27    0.88
  17   0 -10    0.88    0.98
  16   0 -10    0.11    0.83
  15   0 -10    3.17    0.99
  14   0 -10    1.42    0.89
  13   0 -10    0.34    0.80
  12   0 -10    0.01    0.77
  11   0 -10    2.16    0.81
  10   0 -10   16.16    1.02
  10   0 -10   15.56    1.37
   9   0 -10    2.32    0.76
   9   0 -10    3.54    0.54
   8   0 -10    0.84    0.63
   8   0 -10    1.37    0.45
   7   0 -10    0.67    0.40
   7   0 -10    0.59    0.56
   6   0 -10    1.20    0.54
   6   0 -10    0.75    0.41
   5   0 -10    7.77    0.77
   5   0 -10    9.55    0.76
   4   0 -10    4.04    0.60
   4   0 -10    3.29    0.53
   3   0 -10   10.32    0.70
   3   0 -10   10.04    0.79
   2   0 -10   38.50    1.34
   2   0 -10   39.30    1.54
   1   0 -10   45.16    1.73
   1   0 -10   45.15    1.46
   0   0 -10   23.56    1.28
   0   0 -10   24.37    0.97
  -1   0 -10    0.24    0.31
  -1   0 -10    0.39    0.63
  -2   0 -10    0.62    0.68
  -3   0 -10    6.75    0.57
   3   0  10    6.52    0.56
  -3   0 -10    6.19    1.05
  -4   0 -10   17.76    0.89
  -4   0 -10   16.66    1.40
  -5   0 -10   13.43    1.33
  -6   0 -10    5.76    1.07
  -7   0 -10    6.94    1.16
  -8   0 -10   15.14    1.51
  -9   0 -10    9.61    1.47
 -10   0 -10    2.35    1.08
 -11   0 -10    1.06    1.00
 -12   0 -10    5.48    1.32
  17  -1 -10    0.13    0.96
  17   1 -10    1.50    0.97
  16  -1 -10   -0.13    0.96
  16   1 -10    2.63    1.00
  15  -1 -10    0.57    0.94
  15   1 -10    0.09    0.82
  14  -1 -10   -0.09    0.78
  14   1 -10    0.30    0.90
  13  -1 -10    2.13    0.95
  13   1 -10    2.58    0.88
  12  -1 -10    1.03    0.80
  12   1 -10    0.88    0.78
  11  -1 -10    1.48    0.88
  11  -1 -10    1.12    0.54
  11   1 -10    0.93    0.75
  10  -1 -10    1.65    0.50
  10  -1 -10    1.44    0.78
  10   1 -10    1.13    0.74
   9  -1 -10    1.19    0.46
   9  -1 -10    0.66    0.75
   9   1 -10    1.07    0.67
   9   1 -10    0.80    0.43
   8  -1 -10    0.26    0.55
   8  -1 -10   -0.20    0.37
   8   1 -10    0.74    0.58
   8   1 -10   -0.20    0.36
   7  -1 -10    0.69    0.52
   7  -1 -10    1.21    0.45
   7   1 -10    0.34    0.51
   7   1 -10    0.73    0.38
   6  -1 -10    1.42    0.41
   6  -1 -10    1.60    0.57
   6   1 -10    1.88    0.47
   6   1 -10    1.53    0.57
   5  -1 -10    1.68    0.47
   5  -1 -10    1.84    0.50
   5   1 -10    1.11    0.50
   5   1 -10    1.36    0.46
   4  -1 -10    4.51    0.55
   4  -1 -10    4.81    0.65
   4   1 -10    4.87    0.64
   4   1 -10    4.62    0.62
   3  -1 -10    0.46    0.41
   3  -1 -10    0.52    0.33
   3   1 -10    0.08    0.37
   3   1 -10    0.32    0.41
   2  -1 -10   10.88    0.64
   2  -1 -10   10.50    0.85
   2   1 -10   11.38    0.78
   2   1 -10   10.11    0.92
   1  -1 -10    4.03    0.69
   1  -1 -10    3.92    0.42
   1   1 -10    3.87    0.53
   1   1 -10    3.35    0.66
   0  -1 -10    1.56    0.32
   0  -1 -10    1.19    0.63
   0   1 -10    1.26    0.60
   0   1 -10    0.86    0.38
  -1  -1 -10   -0.20    0.23
  -1  -1 -10   -0.28    0.51
  -1   1 -10   -0.02    0.31
  -1   1 -10   -0.63    0.61
  -2  -1 -10    2.06    0.74
  -2   1 -10    2.57    0.34
  -2   1 -10    3.07    0.77
  -2   1 -10    2.84    0.49
  -3  -1 -10    0.46    0.69
   3  -1  10    0.24    0.33
  -3  -1 -10   -0.75    0.23
  -3   1 -10    0.03    0.65
  -3   1 -10   -0.24    0.23
  -4  -1 -10   12.51    0.81
   4  -1  10   11.84    0.80
  -4  -1 -10   13.07    1.28
  -4   1 -10   11.06    1.24
  -5  -1 -10    1.71    0.96
  -5  -1 -10    2.87    0.49
  -5   1 -10    3.30    0.98
  -6  -1 -10   -0.25    0.84
  -6  -1 -10    0.22    0.40
  -6   1 -10    0.61    0.87
  -7  -1 -10    0.08    0.81
  -7   1 -10    0.38    0.86
  -8  -1 -10    0.35    0.88
  -8   1 -10    2.41    0.96
  -9  -1 -10    1.59    0.93
  -9   1 -10    3.13    1.14
 -10  -1 -10    3.24    1.11
 -10   1 -10    4.71    1.24
 -11  -1 -10    2.96    1.10
 -11   1 -10    1.66    1.02
 -12   1 -10    1.32    1.00
  17  -2 -10    0.51    0.96
  17   2 -10    1.81    1.09
  16  -2 -10    5.02    1.30
  16   2 -10    5.07    1.17
  15  -2 -10    5.65    1.25
  15   2 -10    4.48    1.17
  14  -2 -10    1.64    1.00
  14   2 -10    0.56    0.92
  13  -2 -10   -0.60    0.83
  13   2 -10   -0.23    0.72
  12  -2 -10    4.78    0.98
  12  -2 -10    4.67    0.98
  12   2 -10    3.83    0.93
  11  -2 -10   13.57    1.28
  11  -2 -10   14.60    1.02
  11   2 -10   11.31    1.26
  10  -2 -10   13.42    1.29
  10  -2 -10   10.34    0.89
  10   2 -10    7.51    1.05
   9  -2 -10    4.25    0.65
   9  -2 -10    3.06    0.80
   9   2 -10    2.37    0.76
   8  -2 -10    1.44    0.64
   8  -2 -10    1.78    0.52
   8   2 -10    0.71    0.61
   8   2 -10    1.97    0.48
   7  -2 -10    6.55    0.74
   7  -2 -10    6.54    0.83
   7   2 -10    7.57    0.69
   7   2 -10    5.81    0.85
   6  -2 -10   16.48    0.96
   6  -2 -10   15.68    0.94
   6   2 -10   14.59    0.86
   6   2 -10   15.91    1.07
   5  -2 -10   40.89    1.46
   5  -2 -10   42.37    1.58
   5   2 -10   34.48    1.53
   5   2 -10   35.25    1.42
   4   2 -10    3.07    0.55
   4   2 -10    3.25    0.55
   3  -2 -10   49.29    1.52
   3  -2 -10   48.45    1.78
   3   2 -10   50.50    1.75
   3   2 -10   48.59    1.77
   2  -2 -10   23.03    1.19
   2  -2 -10   21.96    0.85
   2   2 -10   21.04    1.06
   2   2 -10   21.07    1.14
   1  -2 -10   15.65    1.01
   1  -2 -10   14.23    0.62
   1   2 -10   14.36    1.01
   1   2 -10   13.43    0.86
   0  -2 -10   13.64    1.01
   0  -2 -10   13.11    0.55
   0   2 -10   12.21    0.85
   0   2 -10   13.33    1.13
  -1  -2 -10    0.15    0.55
  -1   2 -10    0.16    0.65
  -1   2 -10    1.01    0.43
  -2  -2 -10    4.66    0.83
  -2   2 -10    4.79    0.66
  -2   2 -10    5.05    0.87
  -3  -2 -10   13.04    1.22
  -3  -2 -10   12.59    0.80
   3  -2  10   12.31    0.80
  -3   2 -10   13.82    1.35
  -4  -2 -10    9.23    0.75
  -4  -2 -10    9.71    1.24
   4  -2  10    8.50    0.78
  -4   2 -10    7.91    1.12
  -5  -2 -10    2.50    0.52
   5  -2  10    3.21    0.59
  -5  -2 -10    3.60    1.00
  -5   2 -10    2.00    0.87
  -6  -2 -10    2.69    0.57
  -6  -2 -10    2.16    0.98
  -6   2 -10    2.93    1.00
  -7  -2 -10    0.24    0.83
  -7  -2 -10    0.24    0.48
  -7   2 -10    0.16    0.87
  -8  -2 -10   10.36    1.35
  -8  -2 -10   10.52    1.36
  -8   2 -10   11.93    1.54
  -9  -2 -10    7.70    1.33
  -9   2 -10    6.77    1.39
 -10  -2 -10    0.79    0.95
 -10   2 -10    0.92    0.99
 -11   2 -10    0.93    0.96
 -12   2 -10    4.20    1.19
  17  -3 -10    0.64    1.04
  17   3 -10    0.35    0.86
  16  -3 -10    0.24    0.94
  16   3 -10    1.59    0.98
  15  -3 -10   -0.19    0.96
  15   3 -10    0.39    0.90
  14  -3 -10    1.07    0.91
  14   3 -10    1.00    0.86
  13  -3 -10    0.81    0.83
  13   3 -10    0.55    0.89
  12  -3 -10    0.66    0.83
  12  -3 -10    0.28    0.44
  12   3 -10    1.54    0.78
  11  -3 -10    0.07    0.44
  11  -3 -10    0.40    0.75
  11   3 -10    0.10    0.65
  10  -3 -10    0.87    0.71
  10  -3 -10   -0.15    0.44
  10   3 -10    0.30    0.69
   9  -3 -10    4.46    0.84
   9  -3 -10    3.75    0.67
   9   3 -10    3.63    0.88
   8  -3 -10    1.55    0.65
   8  -3 -10    1.60    0.50
   8   3 -10    1.08    0.61
   7  -3 -10    5.19    0.80
   7  -3 -10    4.25    0.68
   7   3 -10    3.81    0.55
   7   3 -10    3.10    0.69
   6  -3 -10    4.02    0.68
   6  -3 -10    4.21    0.63
   6   3 -10    4.57    0.76
   6   3 -10    3.79    0.55
   5  -3 -10    1.29    0.49
   5  -3 -10    2.57    0.57
   4  -3 -10    1.22    0.41
   4  -3 -10    1.30    0.48
   4   3 -10    1.10    0.52
   4   3 -10    1.59    0.49
   3  -3 -10   19.56    1.08
   3  -3 -10   20.11    0.84
   3   3 -10   18.07    1.03
   3   3 -10   20.87    1.08
   2  -3 -10    3.74    0.64
   2  -3 -10    4.19    0.41
   2   3 -10    4.58    0.73
   2   3 -10    3.54    0.58
   1  -3 -10   13.60    0.54
   1  -3 -10   15.35    1.06
   1   3 -10   12.70    0.91
   1   3 -10   13.23    1.01
   0  -3 -10   20.40    1.20
   0   3 -10   20.66    1.25
   0   3 -10   19.01    1.08
  -1  -3 -10    0.66    0.60
  -1   3 -10    1.71    0.70
  -1   3 -10    0.68    0.45
  -2  -3 -10    4.05    0.81
  -2   3 -10    4.40    0.70
  -2   3 -10    4.44    0.88
  -3  -3 -10    0.43    0.36
  -3  -3 -10    0.24    0.66
  -3   3 -10    0.41    0.52
  -3   3 -10    0.10    0.68
   4  -3  10   -0.15    0.42
  -4  -3 -10   -0.33    0.32
  -4  -3 -10    0.13    0.74
  -4   3 -10    0.63    0.74
  -5  -3 -10   -0.13    0.84
   5  -3  10    0.06    0.46
  -5  -3 -10   -0.01    0.38
  -5   3 -10   -0.13    0.69
   6  -3  10    3.68    0.72
  -6  -3 -10    2.87    0.56
  -6  -3 -10    5.51    1.03
  -6   3 -10    4.23    1.05
  -7  -3 -10    1.01    0.81
   7  -3  10   -0.19    0.57
  -7  -3 -10    0.00    0.43
  -7   3 -10    1.33    0.82
  -8  -3 -10    0.42    0.56
  -8  -3 -10    1.38    0.91
  -8   3 -10    0.58    0.95
  -9  -3 -10    0.13    0.58
  -9  -3 -10    1.12    0.96
  -9   3 -10    1.13    1.04
 -10  -3 -10    1.33    1.03
 -10   3 -10   -0.35    0.84
 -11   3 -10    1.68    1.14
 -12   3 -10    1.39    0.98
  17   4 -10    0.39    0.93
  16  -4 -10    3.16    1.14
  16   4 -10    0.76    0.94
  15  -4 -10    1.05    1.07
  15   4 -10    2.39    0.94
  14  -4 -10    0.23    0.90
  14   4 -10   -0.27    0.70
  13  -4 -10    1.04    0.88
  13  -4 -10    2.27    0.62
  13   4 -10    0.54    0.76
  12  -4 -10    3.78    0.73
  12  -4 -10    1.80    0.85
  12   4 -10    2.35    0.91
  11  -4 -10    5.53    0.80
  11  -4 -10    4.63    0.95
  11   4 -10    6.52    1.10
  10  -4 -10    0.46    0.80
  10  -4 -10    0.05    0.52
  10   4 -10    1.10    0.68
   9  -4 -10    2.89    0.85
   9  -4 -10    2.93    0.68
   9   4 -10    1.94    0.76
   8  -4 -10    1.42    0.68
   8  -4 -10    1.45    0.57
   8   4 -10    0.70    0.61
   7  -4 -10   14.99    1.11
   7  -4 -10   15.07    1.04
   7   4 -10   14.32    1.21
   6  -4 -10   54.63    1.91
   6  -4 -10   56.30    2.07
   6   4 -10   54.58    1.79
   6   4 -10   57.14    2.13
   5  -4 -10   33.14    1.50
   5  -4 -10   33.76    1.36
   5   4 -10   33.91    1.54
   5   4 -10   34.89    1.37
   4  -4 -10    2.24    0.56
   4  -4 -10    2.20    0.49
   4   4 -10    2.82    0.57
   4   4 -10    1.85    0.56
   3  -4 -10    2.25    0.56
   3  -4 -10    1.80    0.38
   3   4 -10    2.63    0.55
   3   4 -10    2.45    0.62
   2  -4 -10   13.87    0.63
   2  -4 -10   15.11    1.05
   2   4 -10   14.46    0.98
   2   4 -10   13.98    1.04
   1  -4 -10   16.97    1.10
   1   4 -10   18.39    1.12
   1   4 -10   18.31    1.21
   0  -4 -10   13.46    1.03
   0   4 -10   14.31    1.03
   0   4 -10   11.95    1.05
  -1  -4 -10    0.22    0.62
  -1   4 -10    0.02    0.63
  -1   4 -10    0.07    0.48
  -2  -4 -10    3.96    0.85
  -2   4 -10    3.20    0.71
  -2   4 -10    3.56    0.93
  -3  -4 -10   49.20    1.82
  -3  -4 -10   47.53    2.05
  -3   4 -10   48.08    2.20
  -3   4 -10   49.26    1.94
  -4  -4 -10   20.53    1.15
  -4  -4 -10   18.42    1.41
   4  -4  10   18.59    1.13
  -4   4 -10   16.16    1.42
  -5  -4 -10    0.71    0.44
   5  -4  10    0.12    0.50
  -5  -4 -10    0.04    0.76
  -5   4 -10    0.07    0.69
   6  -4  10    0.20    0.49
  -6  -4 -10    0.01    0.85
  -6  -4 -10    0.09    0.44
  -6   4 -10    0.24    0.77
  -7  -4 -10    0.85    0.52
   7  -4  10    1.91    0.70
  -7  -4 -10    0.43    0.77
  -7   4 -10    1.28    0.82
  -8  -4 -10    3.66    0.78
  -8  -4 -10    4.45    1.13
   8  -4  10    4.87    1.15
  -8   4 -10    4.20    1.11
  -9  -4 -10    1.39    0.72
  -9  -4 -10    1.99    0.98
  -9   4 -10    1.95    1.01
 -10  -4 -10   -0.23    0.66
 -10   4 -10    1.58    1.09
 -11   4 -10    1.92    1.08
 -12   4 -10    1.78    1.06
  16  -5 -10    0.94    1.01
  16   5 -10    2.52    1.03
  15  -5 -10    0.22    1.00
  15   5 -10    0.57    0.77
  14  -5 -10    2.22    0.63
  14  -5 -10    1.83    1.11
  14   5 -10    0.47    0.83
  13  -5 -10    1.76    0.66
  13  -5 -10   -0.91    0.81
  13   5 -10    0.76    0.75
  12  -5 -10   -0.18    0.80
  12  -5 -10    0.87    0.56
  12   5 -10   -0.22    0.63
  11  -5 -10    0.64    0.56
  11  -5 -10    0.37    0.74
  11   5 -10    1.12    0.78
  10  -5 -10   16.29    1.23
  10  -5 -10   12.95    1.21
  10   5 -10   13.13    1.24
   9  -5 -10    1.75    0.67
   9  -5 -10    2.18    0.83
   9   5 -10    1.84    0.73
   8  -5 -10    7.68    0.93
   8  -5 -10    9.09    1.04
   8   5 -10    7.88    1.04
   7  -5 -10   -0.19    0.49
   7  -5 -10   -0.12    0.61
   7   5 -10    0.49    0.59
   6  -5 -10    3.57    0.67
   6  -5 -10    2.87    0.65
   6   5 -10    3.29    0.80
   5  -5 -10   -0.10    0.43
   5  -5 -10    0.06    0.47
   5   5 -10    0.21    0.38
   5   5 -10   -0.40    0.47
   4  -5 -10    4.79    0.58
   4  -5 -10    4.56    0.76
   4   5 -10    5.51    0.69
   4   5 -10    3.40    0.68
   3  -5 -10    5.94    0.56
   3  -5 -10    6.13    0.81
   3   5 -10    5.94    0.75
   3   5 -10    4.92    0.73
   2  -5 -10    5.37    0.77
   2   5 -10    4.23    0.72
   2   5 -10    4.95    0.73
   1  -5 -10    0.75    0.51
   1   5 -10    0.10    0.58
   1   5 -10    1.38    0.55
   0  -5 -10    6.59    0.85
   0   5 -10    7.47    0.94
   0   5 -10    7.56    1.01
  -1  -5 -10    7.99    0.97
  -1   5 -10    5.60    0.90
  -1   5 -10    5.99    0.88
  -2  -5 -10    1.04    0.65
  -2   5 -10    0.10    0.75
  -2   5 -10    0.55    0.56
  -3  -5 -10    1.02    0.75
  -3   5 -10    1.16    0.76
  -3   5 -10    1.62    0.71
   4  -5  10    4.24    0.74
  -4  -5 -10    3.50    0.94
  -4  -5 -10    2.97    0.62
  -4   5 -10    3.46    0.92
   5  -5  10    5.87    0.85
  -5  -5 -10    5.91    1.12
  -5  -5 -10    4.70    0.71
  -5   5 -10    5.23    1.03
  -6  -5 -10    7.98    0.91
  -6  -5 -10    8.55    1.27
   6  -5  10    7.76    0.97
  -6   5 -10    8.44    1.33
  -7  -5 -10   -0.73    0.85
  -7  -5 -10   -0.48    0.39
   7  -5  10   -0.14    0.54
  -7   5 -10    0.19    0.86
   8  -5  10    0.76    0.71
  -8  -5 -10    0.29    0.57
  -8  -5 -10    0.36    0.91
  -8   5 -10    1.46    0.95
  -9  -5 -10   -0.80    0.52
   9  -5  10   -0.75    1.00
  -9   5 -10    0.80    0.89
 -10  -5 -10    0.00    0.68
 -10   5 -10    0.37    0.89
 -11  -5 -10    0.00    0.79
 -11   5 -10    2.49    1.11
 -12   5 -10    1.68    1.13
  16  -6 -10   -0.48    1.00
  16   6 -10    1.66    0.98
  15  -6 -10    0.48    1.03
  15   6 -10    0.60    0.80
  14  -6 -10    2.86    0.69
  14  -6 -10    1.55    1.14
  14   6 -10    1.05    0.78
  13  -6 -10   -0.45    0.96
  13   6 -10    1.21    0.88
  12  -6 -10    6.87    0.97
  12  -6 -10    5.10    1.09
  12   6 -10    4.67    1.00
  11  -6 -10   22.01    1.55
  11  -6 -10   25.02    1.55
 -11  -6  10   22.84    1.74
  11   6 -10   23.91    1.65
 -10  -6  10   11.88    1.29
  10  -6 -10   14.31    1.35
  10  -6 -10   13.92    1.21
  10   6 -10   14.56    1.32
   9  -6 -10    1.59    0.64
   9  -6 -10    2.14    0.82
  -9  -6  10    2.29    0.82
   9   6 -10    1.13    0.70
   8  -6 -10   49.23    1.96
   8  -6 -10   48.69    2.08
   8   6 -10   51.64    2.20
   7  -6 -10   34.18    1.71
   7  -6 -10   33.75    1.55
   7   6 -10   30.87    1.66
   6  -6 -10   10.72    0.99
   6  -6 -10   12.22    1.10
   6   6 -10   11.17    1.14
   5  -6 -10    3.23    0.69
   5  -6 -10    4.60    0.68
   5   6 -10    5.23    0.87
   4  -6 -10    1.15    0.59
   4  -6 -10    1.39    0.48
   4   6 -10    0.58    0.48
   3  -6 -10    4.08    0.78
   3  -6 -10    4.68    0.80
   3   6 -10    4.99    0.74
   3   6 -10    4.62    0.84
   2  -6 -10    0.17    0.56
   2   6 -10   -0.10    0.55
   2   6 -10    0.10    0.53
   1  -6 -10    0.18    0.49
   1   6 -10   -0.59    0.49
   1   6 -10   -0.20    0.56
   0  -6 -10    0.31    0.54
   0   6 -10   -0.87    0.45
   0   6 -10   -0.53    0.51
  -1  -6 -10    1.10    0.67
  -1   6 -10    1.86    0.71
  -1   6 -10    0.63    0.75
  -2  -6 -10    0.36    0.65
  -2   6 -10    0.85    0.60
  -2   6 -10    0.45    0.78
  -3  -6 -10    2.26    0.54
  -3  -6 -10    3.26    0.80
  -3   6 -10    4.11    1.02
  -3   6 -10    3.97    0.82
   4  -6  10    7.71    0.95
  -4  -6 -10    7.68    1.11
  -4  -6 -10    6.89    0.78
  -4   6 -10    8.26    1.18
  -5  -6 -10   18.64    1.24
   5  -6  10   17.73    1.19
  -5  -6 -10   18.44    1.54
  -5   6 -10   20.12    1.61
   6  -6  10    0.27    0.56
  -6  -6 -10    0.20    0.50
  -6  -6 -10    0.10    0.86
  -6   6 -10    0.99    0.87
  -7  -6 -10    2.58    1.02
   7  -6  10    4.42    0.91
  -7  -6 -10    2.39    0.68
  -7   6 -10    3.36    1.03
   8  -6  10    4.77    0.97
  -8  -6 -10    4.20    0.85
  -8   6 -10    5.93    1.31
  -9  -6 -10    2.51    0.75
   9  -6  10    2.46    0.90
  -9   6 -10    4.73    1.22
 -10  -6 -10   -0.93    0.63
 -10   6 -10    0.05    0.95
 -11  -6 -10    0.97    0.84
 -11   6 -10    0.52    1.05
  16   7 -10    1.81    0.89
  15  -7 -10   -0.74    1.11
  15  -7 -10    3.23    0.74
  15   7 -10    1.58    0.97
  14  -7 -10   -0.03    1.09
  14  -7 -10    3.81    0.78
  14   7 -10    1.77    0.95
 -13  -7  10    0.30    0.94
  13  -7 -10    5.28    0.90
  13  -7 -10    2.72    1.18
  13   7 -10    0.99    0.79
 -12  -7  10    2.10    0.95
  12  -7 -10    2.55    0.98
  12  -7 -10    4.77    0.90
  12   7 -10    3.33    1.01
  11  -7 -10    1.70    0.63
 -11  -7  10   -0.13    0.83
  11  -7 -10    1.80    0.91
  11   7 -10    1.28    0.76
 -10  -7  10    0.16    0.80
  10  -7 -10    0.13    0.52
  10  -7 -10    0.42    0.70
  10   7 -10    0.49    0.63
   9  -7 -10   -0.43    0.69
  -9  -7  10    0.27    0.71
   9  -7 -10   -0.01    0.50
   9   7 -10   -0.02    0.62
  -8  -7  10   -0.21    0.66
   8  -7 -10   -0.43    0.46
   8  -7 -10   -0.26    0.63
   8   7 -10    0.42    0.63
  -7  -7  10    1.65    0.67
   7  -7 -10    0.80    0.55
   7  -7 -10    0.79    0.63
   7   7 -10    0.57    0.62
   6  -7 -10    0.02    0.55
  -6  -7  10   -0.19    0.56
   6  -7 -10   -0.08    0.46
   6   7 -10    0.34    0.57
   5  -7 -10    0.59    0.52
   5  -7 -10   -0.09    0.54
   5   7 -10   -1.05    0.50
   4  -7 -10    4.06    0.63
   4  -7 -10    4.89    0.83
   4   7 -10    3.80    0.77
   4   7 -10    3.13    0.75
   3  -7 -10   10.55    1.00
   3   7 -10    8.61    1.00
   3   7 -10   10.29    0.93
   2  -7 -10   10.57    1.01
   2   7 -10   11.27    1.07
   2   7 -10   11.66    1.08
   1  -7 -10    0.79    0.57
   1   7 -10    0.16    0.57
   1   7 -10   -0.04    0.59
   0  -7 -10    3.70    0.74
   0   7 -10    1.63    0.71
   0   7 -10    1.71    0.68
  -1  -7 -10    0.75    0.59
  -1   7 -10    1.51    0.74
  -1   7 -10    1.88    0.70
  -2  -7 -10    0.12    0.58
  -2   7 -10    0.71    0.73
  -2   7 -10   -0.06    0.66
  -3  -7 -10    1.42    0.76
  -3  -7 -10    1.93    0.57
  -3   7 -10    1.52    0.86
  -3   7 -10    1.92    0.73
  -4  -7 -10    0.62    0.75
  -4  -7 -10    0.59    0.44
   4  -7  10    0.58    0.54
  -4   7 -10    1.41    0.87
   5  -7  10    2.16    0.68
  -5  -7 -10    0.10    0.77
  -5  -7 -10    1.00    0.56
  -5   7 -10    2.53    0.92
  -6  -7 -10    0.19    0.91
  -6  -7 -10   -0.21    0.50
   6  -7  10    0.54    0.66
  -6   7 -10    0.33    0.86
   7  -7  10    1.39    0.74
  -7  -7 -10    1.38    0.66
  -7   7 -10    1.99    1.04
  -8  -7 -10   -0.26    0.59
   8  -7  10    0.13    0.75
  -8   7 -10    0.92    0.99
   9  -7  10   -0.58    0.74
  -9  -7 -10    0.28    0.66
  -9   7 -10    0.14    0.89
  10  -7  10   -0.65    0.82
 -10  -7 -10   -1.28    0.67
 -10   7 -10    1.59    1.12
 -11  -7 -10    0.07    0.80
 -15  -8  10   -0.58    1.12
  15  -8 -10    0.06    1.11
  15  -8 -10    3.42    0.77
  15   8 -10    1.56    0.92
 -14  -8  10    0.89    1.20
  14  -8 -10    1.34    0.58
  14  -8 -10   -0.44    0.97
  14   8 -10    0.74    0.77
 -13  -8  10    0.94    1.05
  13  -8 -10    1.77    1.03
  13  -8 -10    5.35    0.98
  13   8 -10    2.34    0.94
  12  -8 -10    2.83    0.82
 -12  -8  10    1.33    1.00
  12  -8 -10    0.21    0.85
  12   8 -10    1.62    0.88
  11  -8 -10    0.78    0.92
  11  -8 -10    3.15    0.80
 -11  -8  10    0.84    0.93
  11   8 -10    1.64    0.86
  10  -8 -10   -0.29    0.81
  10  -8 -10    0.53    0.65
 -10  -8  10   -0.33    0.75
  10   8 -10    1.21    0.79
   9  -8 -10    0.23    0.62
   9  -8 -10   -0.20    0.56
  -9  -8  10   -0.62    0.74
   9   8 -10   -0.40    0.55
   8  -8 -10   -0.29    0.64
  -8  -8  10    0.69    0.67
   8  -8 -10    0.42    0.60
   8   8 -10    0.93    0.66
   7  -8 -10    3.88    0.83
  -7  -8  10    4.32    0.78
   7  -8 -10    4.35    0.80
   7   8 -10    4.11    0.84
  -6  -8  10    3.45    0.70
   6  -8 -10    4.90    0.74
   6  -8 -10    2.86    0.72
   6   8 -10    3.18    0.79
   5  -8 -10   -0.56    0.44
   5  -8 -10   -0.07    0.49
   5   8 -10    0.03    0.63
   4  -8 -10   -0.05    0.51
   4   8 -10    1.52    0.66
   3  -8 -10    0.62    0.55
   3   8 -10    0.13    0.48
   3   8 -10   -0.28    0.46
   2  -8 -10   -0.13    0.59
   2   8 -10    0.18    0.61
   2   8 -10    0.44    0.57
   1  -8 -10    1.39    0.63
   1   8 -10    0.24    0.58
   1   8 -10    1.48    0.66
   0  -8 -10    1.65    0.68
   0   8 -10    1.21    0.65
   0   8 -10    1.25    0.75
  -1  -8 -10    1.14    0.63
  -1   8 -10    0.29    0.69
  -1   8 -10    0.13    0.60
  -2  -8 -10    1.19    0.63
  -2   8 -10    1.42    0.71
  -2   8 -10    1.27    0.84
  -3  -8 -10   13.22    1.05
  -3  -8 -10   13.00    1.27
  -3   8 -10   12.74    1.25
  -3   8 -10   17.96    1.74
  -4  -8 -10    1.03    0.52
   4  -8  10    2.36    0.72
  -4  -8 -10    1.13    0.78
  -4   8 -10    2.50    0.92
   5  -8  10    1.17    0.64
  -5  -8 -10    0.15    0.76
  -5  -8 -10    1.95    0.64
  -5   8 -10    2.85    1.11
   6  -8  10    1.33    0.74
  -6  -8 -10    1.12    0.62
  -6   8 -10    1.19    0.91
  -7  -8 -10    0.16    0.54
   7  -8  10    0.31    0.71
  -7   8 -10    1.11    0.95
   8  -8  10    1.79    0.86
  -8  -8 -10    1.48    0.74
  -8   8 -10    3.50    1.13
  -9  -8 -10   -0.18    0.71
   9  -8  10   -0.30    0.77
 -10  -8 -10    0.33    0.84
  10  -8  10    0.49    0.96
 -15  -9  10   -1.35    1.21
  15   9 -10    1.29    1.01
 -14  -9  10   -0.13    1.13
  14  -9 -10    0.61    1.14
  14  -9 -10    4.12    0.88
  14   9 -10    2.50    0.98
  13  -9 -10    4.18    0.85
  13  -9 -10    0.64    1.12
 -13  -9  10    1.84    1.03
  13   9 -10    3.30    0.94
  12  -9 -10    2.85    0.80
 -12  -9  10    0.45    1.00
  12  -9 -10    0.45    1.00
  12   9 -10    1.96    0.83
 -11  -9  10   -0.45    0.88
  11  -9 -10   -0.09    0.90
  11  -9 -10    0.45    0.57
  11   9 -10    0.56    0.64
  10  -9 -10   -0.31    0.59
 -10  -9  10   -1.24    0.80
  10  -9 -10   -0.18    0.76
  10   9 -10    0.76    0.69
   9  -9 -10    2.04    0.73
   9  -9 -10    0.03    0.73
  -9  -9  10    0.19    0.74
   9   9 -10    1.43    0.72
   8  -9 -10    7.12    1.02
   8  -9 -10    6.58    1.00
  -8  -9  10    6.27    0.97
   8   9 -10    6.27    1.03
  -7  -9  10    1.20    0.70
   7  -9 -10    1.60    0.63
   7  -9 -10    0.60    0.61
   7   9 -10    1.42    0.69
   6  -9 -10    8.47    1.08
   6  -9 -10    7.82    1.13
   6   9 -10    7.68    1.10
   5  -9 -10    1.98    0.73
   5   9 -10    1.44    0.55
   4  -9 -10    1.18    0.62
   4   9 -10    2.32    0.64
   3  -9 -10    5.93    0.88
   3   9 -10    4.44    0.82
   2  -9 -10    2.40    0.71
   2   9 -10    3.44    0.85
   2   9 -10    2.47    0.70
   1  -9 -10    0.14    0.56
   1   9 -10    0.44    0.59
   1   9 -10    1.44    0.63
   0  -9 -10    4.45    0.86
   0   9 -10    8.41    1.18
   0   9 -10    5.06    1.00
  -1  -9 -10    3.97    0.85
  -1   9 -10    5.23    0.96
  -1   9 -10    4.50    1.03
  -2  -9 -10    2.21    0.76
  -2   9 -10    1.23    0.79
  -2   9 -10    3.42    1.00
  -3  -9 -10    7.66    1.07
  -3  -9 -10    6.85    0.85
  -3   9 -10   10.68    1.31
  -3   9 -10   11.71    1.54
   4  -9  10    1.07    0.59
  -4  -9 -10   -0.07    0.40
  -4  -9 -10   -1.08    0.61
  -4   9 -10   -0.98    0.72
   5  -9  10   13.14    1.19
  -5  -9 -10   10.37    1.11
  -5  -9 -10    9.05    1.42
  -5   9 -10   14.68    1.81
  -6  -9 -10    7.15    1.00
   6  -9  10    8.46    1.15
  -6   9 -10   11.12    1.61
   7  -9  10    4.57    1.04
  -7  -9 -10    2.72    0.76
  -8  -9 -10   -0.28    0.62
   8  -9  10   -1.03    0.64
  -9  -9 -10    0.47    0.72
   9  -9  10   -0.97    0.82
  14 -10 -10    3.22    0.76
  14 -10 -10   -0.16    1.05
 -14 -10  10    0.31    1.03
  14  10 -10    0.61    0.82
  13 -10 -10   -0.62    1.06
 -13 -10  10   -1.11    1.04
  13 -10 -10    2.31    0.79
  13  10 -10    1.16    0.76
  12 -10 -10   -0.36    1.01
 -12 -10  10   -0.87    0.82
  12 -10 -10    1.36    0.71
  12  10 -10    1.39    0.75
  11 -10 -10    0.27    0.95
 -11 -10  10   -1.58    0.82
  11 -10 -10    1.10    0.70
  11  10 -10    1.02    0.77
 -10 -10  10   -0.69    0.81
  10 -10 -10   -1.02    0.81
  10 -10 -10    1.70    0.71
  10  10 -10    0.81    0.75
  -9 -10  10   -1.33    0.74
   9 -10 -10   -0.81    0.74
   9 -10 -10   -0.22    0.56
   9  10 -10    0.30    0.71
   8 -10 -10   -0.10    0.62
   8 -10 -10   -0.42    0.65
   8  10 -10    0.00    0.62
   7 -10 -10    1.16    0.64
   7  10 -10    0.74    0.67
   6 -10 -10    2.32    0.75
   5 -10 -10    2.79    0.77
   5  10 -10    1.94    0.61
   4 -10 -10    1.40    0.71
   4  10 -10    0.78    0.48
   3 -10 -10    1.42    0.66
   3  10 -10    0.83    0.58
   2 -10 -10    1.46    0.65
   2  10 -10    1.42    0.65
   1 -10 -10    0.00    0.60
   1  10 -10    0.23    0.63
   0 -10 -10   -0.84    0.58
   0  10 -10   -0.38    0.60
  -1 -10 -10   -0.32    0.56
  -1  10 -10    0.26    0.68
  -2 -10 -10   -0.19    0.66
  -2  10 -10   -0.23    0.73
  -3 -10 -10    1.03    0.77
  -3 -10 -10    1.46    0.62
  -3  10 -10    1.76    0.92
  -4 -10 -10    0.35    0.48
  -4 -10 -10   -0.83    0.66
   4 -10  10    0.72    0.60
  -5 -10 -10   -0.37    0.50
   5 -10  10    0.67    0.66
  -6 -10 -10    0.16    0.60
   6 -10  10    1.71    0.81
  -7 -10 -10   -0.36    0.56
   7 -10  10    0.34    0.72
  -8 -10 -10   -0.53    0.64
   8 -10  10   -0.43    0.84
  -9 -10 -10   -1.13    0.70
  13 -11 -10    6.31    1.07
  13 -11 -10    1.73    1.18
 -13 -11  10   -0.35    1.17
  13  11 -10    2.73    1.00
  12 -11 -10   -1.04    0.89
 -12 -11  10   -1.04    0.96
  12 -11 -10    1.65    0.67
  12  11 -10    1.21    0.82
  11 -11 -10   -1.55    0.89
 -11 -11  10   -0.44    0.96
  11 -11 -10    1.03    0.70
  11  11 -10    1.98    0.87
  10 -11 -10    0.03    0.88
 -10 -11  10   -0.94    0.88
  10 -11 -10    2.09    0.74
  10  11 -10    2.36    0.90
   9 -11 -10    4.97    1.06
   9 -11 -10    5.12    1.00
   9  11 -10    4.76    1.10
   8 -11 -10    7.83    1.13
   8  11 -10   10.66    1.36
   7 -11 -10    2.87    0.89
   7  11 -10    2.53    0.85
   6 -11 -10    1.58    0.72
   6  11 -10    0.78    0.48
   5 -11 -10    7.20    1.13
   5  11 -10    3.13    0.71
   4 -11 -10   25.21    1.70
   3 -11 -10   21.62    1.56
   3  11 -10   21.26    1.62
   2 -11 -10    8.25    1.15
   2  11 -10    7.81    1.11
   1 -11 -10    0.57    0.62
   1  11 -10   -0.32    0.52
   0 -11 -10    8.68    1.14
   0  11 -10    5.87    1.03
  -1 -11 -10    8.38    1.11
  -1  11 -10   10.13    1.33
  -2 -11 -10    2.61    0.88
  -2  11 -10    2.39    0.86
  -3 -11 -10   -0.65    0.67
  -3 -11 -10    0.25    0.48
  -3  11 -10    0.35    0.80
   4 -11  10    1.32    0.64
  -4 -11 -10    0.40    0.50
  -5 -11 -10    4.64    0.86
   5 -11  10    6.64    1.11
   6 -11  10    1.23    0.84
  -6 -11 -10    1.37    0.64
   7 -11  10    0.36    0.74
  -7 -11 -10    0.30    0.60
  -8 -11 -10    1.41    0.79
 -12 -12  10   -2.64    0.87
  12 -12 -10    1.44    0.73
  12 -12 -10   -1.54    1.02
  12  12 -10    0.86    0.86
  11 -12 -10   -1.37    0.94
  11 -12 -10    0.77    0.74
  11  12 -10    1.85    0.89
  10 -12 -10   -2.22    1.24
  10 -12 -10    1.40    0.72
  10  12 -10    0.95    0.85
   9 -12 -10    1.23    0.77
   9  12 -10    1.44    0.88
   8 -12 -10    2.03    0.82
   8  12 -10    0.94    0.63
   7 -12 -10    0.12    0.70
   7  12 -10   -0.14    0.48
   6 -12 -10    0.74    0.75
   6  12 -10    0.14    0.42
   5 -12 -10    0.46    0.73
   5  12 -10    0.12    0.43
   4 -12 -10   -0.23    0.71
   4  12 -10    0.35    0.56
   3 -12 -10   -0.58    0.65
   3  12 -10    1.35    0.68
   2 -12 -10   -0.38    0.70
   2  12 -10    0.05    0.58
   1 -12 -10   -0.78    0.65
   1  12 -10    0.51    0.67
   0 -12 -10   -0.47    0.65
   0  12 -10    0.34    0.70
  -1 -12 -10   -0.08    0.63
  -1  12 -10    0.40    0.75
  -2 -12 -10   -0.53    0.72
  -2 -12 -10    0.29    0.53
  -2  12 -10   -0.55    0.72
  -3 -12 -10    1.55    0.64
  -3  12 -10    1.54    0.84
   4 -12  10    2.09    0.73
  -4 -12 -10    1.07    0.68
   5 -12  10    1.12    0.69
  -5 -12 -10    0.17    0.52
  -6 -12 -10    0.22    0.57
   6 -12  10   -0.74    0.79
  -7 -12 -10   -0.05    0.67
  11 -13 -10    2.38    0.85
  11  13 -10    1.15    1.43
  10 -13 -10    6.69    1.15
  10  13 -10    5.11    1.21
   9 -13 -10    7.65    1.26
   8 -13 -10    9.20    1.34
   8  13 -10    4.84    0.94
   7 -13 -10    1.94    0.83
   7  13 -10    2.01    0.73
   6 -13 -10   -0.65    0.58
   6  13 -10    0.14    0.47
   5 -13 -10    1.33    0.85
   5  13 -10    2.71    0.89
   4 -13 -10    3.59    0.94
   4  13 -10    2.57    0.86
   3 -13 -10    4.45    0.98
   3  13 -10    4.38    0.97
   2 -13 -10    2.82    0.96
   2  13 -10    1.36    0.73
   1 -13 -10    0.51    0.79
   1  13 -10    0.35    0.71
   0 -13 -10    4.83    1.03
   0  13 -10    4.42    1.09
  -1 -13 -10    7.27    1.17
  -1  13 -10    5.24    1.13
  -2 -13 -10    3.56    0.78
  -2  13 -10    1.72    0.82
  -3 -13 -10    0.46    0.50
  -3  13 -10   -0.09    0.71
  -4 -13 -10    1.69    0.69
   4 -13  10    1.90    0.74
  -5 -13 -10    5.77    1.06
   9 -14 -10    3.07    0.93
   8 -14 -10    1.51    0.81
   8  14 -10    0.96    0.70
   7 -14 -10    0.46    0.82
   7  14 -10    0.07    0.46
   6 -14 -10    0.37    0.71
   6  14 -10    0.13    0.72
   5 -14 -10   -0.17    0.77
   5  14 -10   -0.74    0.64
   4 -14 -10   -0.12    0.72
   4  14 -10    0.11    0.70
   3 -14 -10    1.61    0.83
   3  14 -10    1.97    0.87
   2 -14 -10   -0.34    0.65
   2  14 -10   -0.14    0.62
   1 -14 -10    1.03    0.81
   1  14 -10   -0.27    0.70
   0 -14 -10   -0.24    0.76
   0  14 -10    0.13    0.69
  -1 -14 -10    1.26    0.53
  -1  14 -10    0.62    0.86
  -2 -14 -10    1.00    0.57
  -2  14 -10   -0.49    0.73
  -3 -14 -10    0.62    0.57
  -4 -14 -10    0.61    0.61
   7 -15 -10    0.48    0.86
   6 -15 -10   -0.40    0.81
   5 -15 -10    1.24    0.94
   4 -15 -10    2.87    0.98
   4  15 -10    1.96    1.14
   3 -15 -10    0.87    0.92
   3  15 -10    1.01    1.24
   2 -15 -10    0.81    0.91
   1 -15 -10    1.53    0.99
  -1 -15 -10    2.83    0.73
  17   0 -11    0.88    1.03
  16   0 -11    0.34    0.89
  15   0 -11    0.79    0.93
  14   0 -11   -0.22    0.77
  13   0 -11   -0.82    0.66
  12   0 -11    0.52    0.75
  11   0 -11   -0.01    0.82
  10   0 -11    0.00    0.46
  10   0 -11   -0.90    0.65
   9   0 -11    0.12    0.74
   9   0 -11   -0.18    0.42
   8   0 -11    0.03    0.45
   8   0 -11    0.34    0.67
   7   0 -11   -0.82    0.54
   7   0 -11   -0.60    0.39
   6   0 -11   -0.48    0.42
   6   0 -11   -0.04    0.42
   5   0 -11   -0.38    0.42
   5   0 -11   -0.41    0.39
   4   0 -11   -0.14    0.41
   4   0 -11   -0.40    0.37
   3   0 -11   -0.12    0.37
   3   0 -11    0.03    0.51
   2   0 -11   -0.29    0.30
   2   0 -11    0.11    0.55
   1   0 -11   -0.03    0.32
   1   0 -11    0.84    0.58
   0   0 -11   -0.35    0.29
   0   0 -11    0.01    0.58
  -1   0 -11    0.85    0.68
  -1   0 -11   -0.16    0.31
  -2   0 -11   -0.13    0.70
  -3   0 -11   -0.73    0.70
  -3   0 -11   -0.11    0.28
  -4   0 -11    0.00    0.75
  -5   0 -11   -0.10    0.75
  -6   0 -11   -0.64    0.74
  -7   0 -11   -0.67    0.85
  -8   0 -11   -0.07    0.97
  -9   0 -11    0.70    0.86
 -10   0 -11    0.58    1.00
 -11   0 -11    1.24    1.00
 -12   0 -11    1.42    1.14
  17  -1 -11    1.71    1.09
  17   1 -11    1.44    0.98
  16  -1 -11    3.96    1.16
  16   1 -11    2.36    1.05
  15  -1 -11    0.45    0.85
  15   1 -11    0.85    0.87
  14  -1 -11    0.28    0.94
  14   1 -11    0.66    0.87
  13  -1 -11    2.89    1.00
  13   1 -11    3.84    1.05
  12  -1 -11    8.31    1.22
  12   1 -11    7.03    1.12
  11  -1 -11    3.33    0.86
  11  -1 -11    5.11    1.08
  11   1 -11    3.26    0.98
  10  -1 -11    1.48    0.74
  10  -1 -11    1.43    0.51
  10   1 -11   -0.10    0.67
   9  -1 -11    2.04    0.55
   9  -1 -11    1.37    0.71
   9   1 -11    1.53    0.54
   9   1 -11    1.55    0.73
   8  -1 -11   18.83    1.09
   8  -1 -11   17.89    1.30
   8   1 -11   17.77    1.02
   8   1 -11   18.16    1.25
   7  -1 -11   22.99    1.33
   7  -1 -11   24.08    1.22
   7   1 -11   23.60    1.14
   7   1 -11   23.96    1.37
   6  -1 -11   20.59    1.16
   6  -1 -11   21.96    1.15
   6   1 -11   20.71    1.08
   6   1 -11   19.67    1.18
   5   1 -11   16.77    1.04
   5   1 -11   16.48    1.02
   4  -1 -11   25.24    1.10
   4  -1 -11   26.22    1.29
   4   1 -11   25.79    1.20
   4   1 -11   25.01    1.25
   3  -1 -11   49.70    1.59
   3  -1 -11   45.55    1.77
   3   1 -11   47.07    1.81
   3   1 -11   48.08    1.68
   2  -1 -11   32.20    1.49
   2  -1 -11   32.81    1.18
   2   1 -11   34.73    1.34
   2   1 -11   33.83    1.55
   1  -1 -11   19.42    1.20
   1  -1 -11   18.21    0.83
   1   1 -11   18.48    0.95
   1   1 -11   18.06    1.20
   0  -1 -11    1.59    0.34
   0  -1 -11    2.15    0.71
   0   1 -11    1.45    0.44
   0   1 -11    1.58    0.75
  -1  -1 -11    2.28    0.42
  -1  -1 -11    1.28    0.70
  -1   1 -11    2.26    0.51
  -1   1 -11    1.86    0.77
  -2  -1 -11    6.63    1.02
  -2   1 -11    7.47    0.72
  -2   1 -11    6.97    1.02
   3  -1  11    9.23    0.72
  -3  -1 -11   10.40    1.21
  -3  -1 -11    9.96    0.74
  -3   1 -11    8.85    1.15
  -4  -1 -11    0.64    0.89
  -4  -1 -11    0.37    0.35
  -4   1 -11   -0.54    0.79
  -5  -1 -11    3.07    0.53
  -5  -1 -11    2.06    0.91
  -5   1 -11    3.85    0.96
  -6  -1 -11    7.54    1.24
  -6   1 -11   10.19    1.39
  -7  -1 -11   20.02    1.75
  -7   1 -11   19.62    1.68
  -8  -1 -11   14.02    1.69
  -8   1 -11   13.64    1.66
  -9  -1 -11    1.69    1.07
  -9   1 -11    3.27    1.18
 -10  -1 -11    1.32    1.03
 -10   1 -11    1.72    1.04
 -11  -1 -11    4.57    1.19
 -11   1 -11    3.64    1.15
 -12   1 -11    3.20    1.19
  17  -2 -11    0.37    0.98
  17   2 -11    1.40    0.95
  16  -2 -11    0.76    0.93
  16   2 -11   -0.48    0.76
  15  -2 -11    0.72    0.91
  15   2 -11    0.66    0.86
  14  -2 -11    0.84    0.88
  14   2 -11    1.56    0.88
  13  -2 -11    1.02    0.95
  13   2 -11    0.26    0.83
  12  -2 -11   -0.63    0.79
  12   2 -11    0.22    0.80
  11  -2 -11   -0.38    0.42
  11  -2 -11    0.57    0.75
  11   2 -11   -0.41    0.64
  10  -2 -11    2.13    0.87
  10  -2 -11    1.30    0.56
  10   2 -11    1.11    0.75
   9  -2 -11    0.38    0.45
   9  -2 -11    0.35    0.66
   9   2 -11    0.86    0.68
   8  -2 -11    0.87    0.63
   8  -2 -11    0.92    0.49
   8   2 -11    0.80    0.63
   8   2 -11    0.20    0.47
   7  -2 -11    0.00    0.49
   7  -2 -11   -0.10    0.39
   7   2 -11   -0.25    0.58
   7   2 -11   -0.46    0.43
   6  -2 -11    0.14    0.45
   6  -2 -11   -0.09    0.52
   6   2 -11   -0.28    0.52
   6   2 -11   -0.38    0.44
   5  -2 -11    6.31    0.78
   5  -2 -11    5.70    0.68
   5   2 -11    4.76    0.76
   5   2 -11    5.65    0.72
   4  -2 -11    9.00    0.89
   4  -2 -11    7.23    0.65
   4   2 -11    8.33    0.76
   4   2 -11    7.96    0.82
   3  -2 -11    0.51    0.49
   3  -2 -11   -0.05    0.33
   3   2 -11    0.01    0.53
   3   2 -11    0.02    0.40
   2  -2 -11   -0.15    0.28
   2  -2 -11    0.40    0.50
   2   2 -11   -0.29    0.37
   2   2 -11   -0.58    0.55
   1  -2 -11    2.47    0.71
   1  -2 -11    1.81    0.32
   1   2 -11    2.06    0.50
   1   2 -11    1.95    0.73
   0  -2 -11    1.16    0.64
   0   2 -11    1.08    0.72
   0   2 -11    0.33    0.42
  -1  -2 -11    9.00    1.09
  -1   2 -11    8.47    0.77
  -1   2 -11    8.10    1.03
  -2  -2 -11    1.22    0.73
  -2   2 -11    0.18    0.75
  -2   2 -11    1.03    0.50
   3  -2  11    1.02    0.45
  -3  -2 -11    1.02    0.38
  -3  -2 -11    1.01    0.80
  -3   2 -11    0.06    0.70
  -4  -2 -11    0.24    0.79
   4  -2  11    0.17    0.41
  -4  -2 -11    0.65    0.39
  -4   2 -11    0.07    0.73
  -5  -2 -11    0.19    0.40
  -5  -2 -11    1.16    0.83
  -5   2 -11    0.35    0.84
  -6  -2 -11    0.22    0.45
  -6  -2 -11    0.86    0.93
  -6   2 -11    0.44    0.88
  -7  -2 -11    2.58    1.04
  -7   2 -11    1.40    1.02
  -8  -2 -11    0.89    0.97
  -8   2 -11    0.78    1.02
  -9  -2 -11    0.06    0.93
  -9   2 -11    0.92    1.02
 -10  -2 -11    0.32    0.83
 -10   2 -11    0.89    1.03
 -11   2 -11    0.12    1.01
 -12   2 -11    0.69    0.95
  17  -3 -11    0.90    1.79
  17   3 -11    1.58    1.09
  16  -3 -11    0.84    1.02
  16   3 -11    3.41    1.11
  15  -3 -11    1.16    0.96
  15   3 -11    0.68    0.92
  14  -3 -11   -0.08    0.87
  14   3 -11   -0.92    0.75
  13  -3 -11    0.93    0.86
  13   3 -11    2.06    0.89
  12  -3 -11    4.32    0.98
  12  -3 -11    4.98    0.79
  12   3 -11    4.60    1.00
  11  -3 -11    1.06    0.54
  11  -3 -11    1.27    0.90
  11   3 -11    1.26    0.76
  10  -3 -11    4.82    0.78
  10  -3 -11    3.60    0.89
  10   3 -11    3.35    0.89
   9  -3 -11    2.59    0.64
   9  -3 -11    2.93    0.79
   9   3 -11    2.18    0.79
   8  -3 -11   12.40    1.02
   8  -3 -11   13.55    1.18
   8   3 -11   10.25    1.13
   7  -3 -11    8.74    0.95
   7  -3 -11    9.55    0.86
   7   3 -11    7.94    0.94
   7   3 -11    8.05    0.79
   6  -3 -11    8.21    0.83
   6  -3 -11    8.67    0.89
   6   3 -11    6.57    0.88
   6   3 -11    8.34    0.80
   5  -3 -11    8.72    0.86
   5  -3 -11   10.23    0.86
   5   3 -11    9.56    0.88
   5   3 -11    9.78    0.94
   4  -3 -11    5.91    0.62
   4  -3 -11    4.48    0.70
   4   3 -11    9.03    0.89
   4   3 -11    5.82    0.75
   3  -3 -11   27.14    1.03
   3  -3 -11   27.53    1.36
   3   3 -11   26.17    1.31
   3   3 -11   25.02    1.30
   2  -3 -11   22.03    0.84
   2  -3 -11   21.13    1.29
   2   3 -11   21.07    1.31
   2   3 -11   20.86    1.17
   1  -3 -11   33.92    1.63
   1   3 -11   34.71    1.50
   1   3 -11   34.58    1.70
   0  -3 -11    3.74    0.75
   0   3 -11    3.30    0.62
   0   3 -11    3.72    0.85
  -1  -3 -11    7.46    0.96
  -1   3 -11    8.08    1.11
  -1   3 -11    8.24    0.89
  -2  -3 -11   27.35    1.67
  -2   3 -11   26.65    1.35
  -2   3 -11   26.82    1.70
  -3  -3 -11   26.98    1.65
  -3  -3 -11   26.13    1.24
  -3   3 -11   27.07    1.40
  -3   3 -11   26.35    1.67
   4  -3  11    1.95    0.54
  -4  -3 -11    1.14    0.44
  -4  -3 -11    0.60    0.89
  -4   3 -11    1.94    0.83
  -5  -3 -11    0.76    0.93
  -5  -3 -11    1.36    0.47
   5  -3  11    0.96    0.53
  -5   3 -11    0.27    0.73
  -6  -3 -11    0.36    0.46
  -6  -3 -11    0.93    0.94
  -6   3 -11    0.76    0.87
  -7  -3 -11    2.36    0.62
  -7  -3 -11    3.76    1.10
  -7   3 -11    4.16    1.08
  -8  -3 -11    4.13    0.88
  -8  -3 -11    5.32    1.13
  -8   3 -11   11.95    1.61
  -9  -3 -11    0.87    1.01
  -9   3 -11    1.75    1.04
 -10  -3 -11    1.67    1.00
 -10   3 -11    0.85    0.96
 -11   3 -11    0.97    1.15
  16  -4 -11   -0.55    1.04
  16   4 -11    1.44    0.96
  15  -4 -11    0.09    0.92
  15   4 -11    0.63    0.90
  14  -4 -11    0.06    0.87
  14   4 -11    0.41    0.79
  13  -4 -11    0.04    0.84
  13  -4 -11    1.37    0.60
  13   4 -11    0.54    0.82
  12  -4 -11   -0.93    0.81
  12  -4 -11   -0.05    0.47
  12   4 -11    0.13    0.68
  11  -4 -11    1.27    0.57
  11  -4 -11    0.14    0.73
  11   4 -11    0.07    0.63
  10  -4 -11   -0.13    0.67
  10  -4 -11    0.51    0.54
  10   4 -11   -0.58    0.67
   9  -4 -11    1.14    0.61
   9  -4 -11    2.33    0.79
   9   4 -11    1.38    0.79
   8  -4 -11    3.15    0.79
   8  -4 -11    3.18    0.66
   8   4 -11    3.32    0.86
   7  -4 -11    1.93    0.64
   7  -4 -11    3.07    0.70
   7   4 -11    2.71    0.79
   6  -4 -11    6.26    0.81
   6  -4 -11    6.35    0.79
   6   4 -11    7.88    0.94
   6   4 -11    8.04    0.82
   5  -4 -11    9.04    0.79
   5  -4 -11    9.19    0.90
   5   4 -11   10.47    0.87
   5   4 -11    8.14    0.93
   4  -4 -11    4.18    0.73
   4  -4 -11    5.31    0.60
   4   4 -11    5.90    0.83
   4   4 -11    6.04    0.78
   3  -4 -11    0.15    0.47
   3  -4 -11    0.20    0.34
   3   4 -11    0.20    0.53
   3   4 -11    0.27    0.47
   2  -4 -11    6.86    0.91
   2   4 -11    6.71    0.88
   2   4 -11    7.80    0.90
   1  -4 -11   16.79    1.14
   1   4 -11   14.95    1.24
   1   4 -11   14.78    1.03
   0  -4 -11    2.64    0.71
   0   4 -11    2.60    0.65
   0   4 -11    3.82    0.86
  -1  -4 -11    0.21    0.69
  -1   4 -11    0.11    0.65
  -1   4 -11   -0.18    0.53
  -2  -4 -11    1.29    0.82
  -2   4 -11    0.32    0.58
  -2   4 -11    1.25    0.78
  -3  -4 -11   12.42    1.26
  -3  -4 -11   10.90    0.92
  -3   4 -11   12.61    1.46
  -3   4 -11   14.22    1.15
  -4  -4 -11    2.32    0.54
  -4  -4 -11    1.72    0.96
   4  -4  11    3.13    0.67
  -4   4 -11    2.91    0.88
  -5  -4 -11    2.81    0.56
   5  -4  11    2.92    0.68
  -5  -4 -11    3.20    0.94
  -5   4 -11    3.65    0.94
  -6  -4 -11   -0.14    0.90
  -6  -4 -11   -0.68    0.40
   6  -4  11    0.90    0.58
  -6   4 -11   -0.44    0.70
  -7  -4 -11    1.78    1.03
  -7  -4 -11    0.54    0.52
  -7   4 -11    0.50    0.93
  -8  -4 -11    1.59    1.05
  -8  -4 -11   -0.68    0.55
  -8   4 -11    1.08    0.93
  -9  -4 -11    0.08    0.67
  -9  -4 -11    1.09    0.98
  -9   4 -11    0.96    0.93
 -10   4 -11    2.46    1.20
 -11   4 -11    1.31    1.10
  16  -5 -11   -0.31    1.08
  16   5 -11    1.74    0.91
  15  -5 -11    0.29    0.96
  15   5 -11    0.64    0.88
  14  -5 -11    1.77    0.60
  14  -5 -11    0.28    1.02
  14   5 -11    0.77    0.86
  13  -5 -11    2.46    0.69
  13  -5 -11    0.83    0.98
  13   5 -11    1.36    0.80
  12  -5 -11    5.96    0.95
  12  -5 -11    4.26    1.11
  12   5 -11    3.47    1.02
  11  -5 -11    3.32    0.72
  11  -5 -11    2.30    0.94
  11   5 -11    4.19    0.99
  10  -5 -11    8.42    1.06
  10  -5 -11    7.24    0.99
  10   5 -11    7.58    1.09
   9  -5 -11    0.74    0.69
   9  -5 -11    1.51    0.59
   9   5 -11    1.89    0.79
   8  -5 -11   -0.12    0.56
   8  -5 -11    0.20    0.68
   8   5 -11   -0.71    0.53
   7  -5 -11    0.31    0.61
   7  -5 -11   -0.43    0.51
   7   5 -11    0.24    0.67
   6  -5 -11    1.04    0.58
   6  -5 -11    1.00    0.54
   6   5 -11    0.66    0.59
   5  -5 -11    0.57    0.53
   5  -5 -11   -0.08    0.52
   5   5 -11    0.44    0.62
   5   5 -11    0.12    0.46
   4  -5 -11    6.07    0.64
   4  -5 -11    4.88    0.78
   4   5 -11    6.34    0.79
   4   5 -11    5.47    0.87
   3  -5 -11    9.12    0.93
   3   5 -11   10.14    1.01
   3   5 -11    8.59    1.00
   2  -5 -11    9.13    0.94
   2   5 -11    8.96    1.01
   2   5 -11   10.69    0.96
   1  -5 -11    4.30    0.84
   1   5 -11    4.45    0.81
   1   5 -11    4.70    0.87
   0  -5 -11   -0.43    0.53
   0   5 -11   -0.20    0.55
   0   5 -11    0.01    0.70
  -1  -5 -11    6.34    0.91
  -1   5 -11    6.58    1.08
  -1   5 -11    5.68    0.90
  -2  -5 -11   17.90    1.35
  -2   5 -11   19.27    1.32
  -2   5 -11   18.29    1.46
  -3  -5 -11   25.09    1.28
  -3  -5 -11   24.11    1.64
  -3   5 -11   24.33    1.50
  -3   5 -11   23.95    1.75
  -4  -5 -11   19.79    1.22
   4  -5  11   20.89    1.24
  -4  -5 -11   19.87    1.61
  -4   5 -11   20.18    1.68
  -5  -5 -11    1.13    0.52
  -5  -5 -11    0.74    0.81
   5  -5  11    1.89    0.60
  -5   5 -11    2.32    0.94
  -6  -5 -11   -0.85    0.90
  -6  -5 -11   -0.37    0.46
   6  -5  11    0.21    0.58
  -6   5 -11   -0.03    0.72
  -7  -5 -11    1.48    0.61
   7  -5  11    1.42    0.72
  -7  -5 -11    2.74    1.05
  -7   5 -11    2.24    0.97
  -8  -5 -11    1.25    0.64
  -8  -5 -11    1.37    1.04
  -8   5 -11    1.43    0.95
  -9  -5 -11    0.41    0.67
  -9   5 -11    0.57    0.87
 -10  -5 -11   -0.45    0.67
 -10   5 -11    1.79    1.06
 -11   5 -11    1.65    1.07
  16  -6 -11    0.62    1.20
  16   6 -11    1.46    0.89
  15  -6 -11    3.93    0.81
  15  -6 -11    0.18    1.00
  15   6 -11    1.67    0.97
  14  -6 -11    1.36    0.59
  14  -6 -11   -0.15    1.03
  14   6 -11    0.22    0.74
  13  -6 -11   -0.48    0.83
  13  -6 -11    1.07    0.61
  13   6 -11    0.83    0.77
  12  -6 -11    2.85    1.08
  12  -6 -11    3.32    0.78
  12   6 -11    4.25    0.99
  11  -6 -11    8.65    1.10
  11  -6 -11   10.32    1.30
  11   6 -11    6.99    1.14
  10  -6 -11   11.76    1.10
  10  -6 -11   13.16    1.22
  10   6 -11   12.36    1.36
   9  -6 -11   18.84    1.40
   9  -6 -11   20.30    1.40
   9   6 -11   19.22    1.51
   8  -6 -11    4.69    0.88
   8  -6 -11    5.00    0.89
   8   6 -11    5.56    1.02
   7  -6 -11   -0.68    0.45
   7  -6 -11    0.06    0.63
   7   6 -11   -0.22    0.57
   6  -6 -11    0.07    0.53
   6  -6 -11    0.32    0.55
   6   6 -11    0.61    0.67
   5  -6 -11    2.19    0.65
   5  -6 -11    1.90    0.58
   5   6 -11    2.57    0.75
   4  -6 -11    4.61    0.79
   4   6 -11    4.58    0.73
   4   6 -11    3.64    0.76
   3  -6 -11    0.19    0.58
   3   6 -11   -0.75    0.53
   3   6 -11    0.86    0.54
   2  -6 -11   -0.10    0.57
   2   6 -11   -0.21    0.50
   2   6 -11   -0.33    0.55
   1  -6 -11    3.33    0.75
   1   6 -11    2.02    0.68
   1   6 -11    2.30    0.74
   0  -6 -11    1.70    0.75
   0   6 -11    0.64    0.66
   0   6 -11    1.71    0.82
  -1  -6 -11    2.15    0.72
  -1   6 -11    2.41    0.91
  -1   6 -11    3.63    0.84
  -2  -6 -11    0.01    0.64
  -2   6 -11   -0.57    0.58
  -2   6 -11   -0.40    0.76
  -3  -6 -11    1.60    0.83
  -3  -6 -11    2.03    0.54
  -3   6 -11    1.84    0.83
  -3   6 -11    3.35    0.88
   4  -6  11   18.96    1.19
  -4  -6 -11   17.97    1.53
  -4  -6 -11   16.90    1.13
  -4   6 -11   17.14    1.50
  -5  -6 -11    1.86    0.55
  -5  -6 -11    0.08    0.87
   5  -6  11    0.92    0.60
  -5   6 -11    0.87    0.87
  -6  -6 -11    0.48    0.53
   6  -6  11    0.49    0.66
  -6  -6 -11    1.07    0.95
  -6   6 -11    1.84    0.92
  -7  -6 -11   -0.20    0.94
   7  -6  11   -0.12    0.61
  -7  -6 -11   -0.64    0.50
  -7   6 -11    1.04    1.00
   8  -6  11    0.02    0.71
  -8  -6 -11    0.38    0.63
  -8   6 -11    2.77    1.01
  -9  -6 -11    1.17    0.70
  -9   6 -11    0.84    0.95
 -10  -6 -11   -0.50    0.71
 -10   6 -11    1.54    1.16
 -11   6 -11    3.78    1.34
  15  -7 -11   -0.84    1.01
  15  -7 -11    2.26    0.65
  15   7 -11    1.16    0.84
  14  -7 -11    1.77    0.71
  14  -7 -11   -0.29    1.08
  14   7 -11    1.39    0.85
  13  -7 -11    1.42    0.64
  13  -7 -11   -0.68    0.87
  13   7 -11    0.91    0.85
  12  -7 -11    0.79    0.99
  12  -7 -11    1.86    0.74
  12   7 -11    0.98    0.89
  11  -7 -11    2.31    0.91
  11  -7 -11    1.79    0.69
  11   7 -11    3.19    0.91
  10  -7 -11    0.16    0.52
  10  -7 -11   -0.45    0.67
  10   7 -11   -0.08    0.71
   9  -7 -11    9.97    1.15
   9  -7 -11   10.05    1.18
   9   7 -11    7.89    1.12
   8  -7 -11    0.25    0.53
   8  -7 -11    0.26    0.66
   8   7 -11    0.45    0.65
   7  -7 -11    1.31    0.67
   7  -7 -11    2.00    0.68
   7   7 -11    1.75    0.78
   6  -7 -11    0.27    0.57
   6  -7 -11    0.08    0.56
   6   7 -11    0.18    0.55
   5  -7 -11    1.53    0.63
   4  -7 -11    0.18    0.55
   4   7 -11    0.17    0.64
   4   7 -11    0.53    0.76
   3  -7 -11    0.82    0.61
   3   7 -11    1.84    0.66
   3   7 -11    1.93    0.65
   2  -7 -11    2.37    0.70
   2   7 -11    3.83    0.82
   2   7 -11    2.30    0.76
   1  -7 -11    2.49    0.72
   1   7 -11    3.11    0.81
   1   7 -11    3.66    0.87
   0  -7 -11    2.38    0.72
   0   7 -11    3.37    0.90
   0   7 -11    3.28    0.79
  -1  -7 -11   -0.43    0.63
  -1   7 -11   -0.02    0.64
  -1   7 -11    0.09    0.74
  -2  -7 -11    5.07    0.97
  -2   7 -11    5.53    0.94
  -2   7 -11    6.75    1.11
  -3  -7 -11    8.54    0.92
  -3  -7 -11    7.39    1.09
  -3   7 -11    7.61    1.15
  -3   7 -11    6.10    1.18
   4  -7  11    2.56    0.72
  -4  -7 -11    0.82    0.83
  -4  -7 -11    1.31    0.49
  -4   7 -11    2.10    0.99
  -5  -7 -11    0.24    0.85
  -5  -7 -11    0.66    0.56
   5  -7  11    1.16    0.63
  -5   7 -11    0.86    0.98
  -6  -7 -11    1.60    0.65
   6  -7  11    0.57    0.67
  -6  -7 -11    0.90    0.95
  -6   7 -11    1.67    0.93
  -7  -7 -11    0.85    0.64
   7  -7  11    1.29    0.70
  -7   7 -11    1.75    0.96
  -8  -7 -11    0.36    0.60
   8  -7  11    2.10    0.91
  -8   7 -11    2.27    1.09
  -9  -7 -11   -1.32    0.63
   9  -7  11   -0.80    0.66
  -9   7 -11    1.13    1.06
 -10  -7 -11   -1.08    0.69
 -10   7 -11    2.22    1.17
  15  -8 -11   -1.22    1.14
  15  -8 -11    2.72    0.72
  15   8 -11    0.93    0.87
  14  -8 -11   -1.28    1.03
  14  -8 -11    2.13    0.72
  14   8 -11    2.20    0.92
  13  -8 -11    0.75    0.60
  13  -8 -11    0.76    0.96
  13   8 -11    1.89    0.85
 -12  -8  11    0.22    1.01
  12  -8 -11    0.64    0.59
  12  -8 -11    0.15    0.94
  12   8 -11    1.37    0.78
  11  -8 -11    2.45    0.79
  11  -8 -11    1.59    0.88
 -11  -8  11    0.28    0.90
  11   8 -11    2.31    0.87
 -10  -8  11    2.41    0.95
  10  -8 -11    2.27    0.88
  10  -8 -11    1.93    0.77
  10   8 -11    2.56    0.86
  -9  -8  11   11.62    1.25
   9  -8 -11   10.35    1.19
   9  -8 -11   12.66    1.26
   9   8 -11   12.30    1.41
   8  -8 -11   -0.22    0.61
   8  -8 -11    0.54    0.62
  -8  -8  11    0.97    0.75
   8   8 -11    0.98    0.68
   7  -8 -11   15.55    1.16
   7  -8 -11   15.61    1.31
   7   8 -11   15.93    1.38
   6  -8 -11    1.73    0.72
   6   8 -11    2.37    0.82
   5  -8 -11    6.79    0.99
   5   8 -11    7.13    1.02
   4  -8 -11    4.30    0.82
   4   8 -11    2.03    0.62
   3  -8 -11    1.70    0.68
   3   8 -11    2.27    0.66
   3   8 -11    0.85    0.54
   2  -8 -11   -0.10    0.63
   2   8 -11   -0.28    0.61
   2   8 -11   -0.27    0.54
   1  -8 -11    5.25    0.92
   1   8 -11    4.16    0.86
   1   8 -11    7.07    1.04
   0  -8 -11    4.26    0.90
   0   8 -11    6.08    1.09
   0   8 -11    3.59    0.85
  -1  -8 -11   -0.48    0.55
  -1   8 -11    1.12    0.80
  -1   8 -11    0.52    0.63
  -2  -8 -11    0.33    0.71
  -2   8 -11   -0.18    0.60
  -2   8 -11    0.18    0.79
  -3  -8 -11    0.16    0.46
  -3  -8 -11    0.12    0.73
  -3   8 -11    0.89    0.79
  -3   8 -11   -0.65    0.81
  -4  -8 -11    4.85    0.80
   4  -8  11    4.31    0.82
  -4  -8 -11    4.19    1.03
  -4   8 -11    4.87    1.14
   5  -8  11    4.80    0.95
  -5  -8 -11    2.39    0.99
  -5  -8 -11    3.09    0.74
  -5   8 -11    5.15    1.26
   6  -8  11    0.95    0.72
  -6  -8 -11    0.38    1.50
  -6  -8 -11    1.41    0.65
  -6   8 -11    1.95    1.12
  -7  -8 -11    0.27    0.59
   7  -8  11    1.16    0.77
  -7   8 -11    1.92    1.13
  -8  -8 -11    1.28    0.75
   8  -8  11    2.21    0.90
  -8   8 -11    2.86    1.20
   9  -8  11    0.30    0.88
  -9  -8 -11    0.92    0.79
  -9   8 -11    2.34    1.23
  15  -9 -11    2.59    0.71
  14  -9 -11   -0.60    1.12
  14  -9 -11    2.48    0.80
 -14  -9  11   -0.57    1.10
  14   9 -11    1.19    0.91
  13  -9 -11    1.08    0.61
  13  -9 -11   -0.90    0.97
 -13  -9  11   -1.19    1.03
  13   9 -11    0.76    0.77
  12  -9 -11   -0.54    0.84
 -12  -9  11   -0.48    0.96
  12  -9 -11    0.82    0.63
  12   9 -11    0.65    0.76
 -11  -9  11   -0.38    0.90
  11  -9 -11    0.25    0.69
  11  -9 -11   -1.01    0.85
  11   9 -11    0.50    0.79
 -10  -9  11   -0.86    0.78
  10  -9 -11    0.10    0.64
  10  -9 -11    0.47    0.82
  10   9 -11   -0.06    0.74
   9  -9 -11   -0.50    0.61
   9  -9 -11   -0.06    0.78
  -9  -9  11   -1.48    0.71
   9   9 -11   -0.12    0.68
   8  -9 -11   -1.38    0.62
   8  -9 -11   -0.20    0.51
   8   9 -11    0.51    0.70
   7  -9 -11    1.73    0.66
   7   9 -11    2.33    0.85
   6  -9 -11    2.06    0.75
   6   9 -11    2.60    0.80
   5  -9 -11   -0.43    0.58
   5   9 -11    0.11    0.40
   4  -9 -11    0.58    0.59
   4   9 -11   -0.03    0.35
   3  -9 -11    1.17    0.72
   3   9 -11    0.77    0.53
   2  -9 -11    0.79    0.60
   2   9 -11    0.54    0.59
   2   9 -11    0.44    0.69
   1  -9 -11    0.80    0.70
   1   9 -11   -0.03    0.58
   1   9 -11    1.04    0.66
   0  -9 -11    2.29    0.81
   0   9 -11    3.08    0.91
   0   9 -11    3.13    0.84
  -1  -9 -11    2.42    0.83
  -1   9 -11    2.59    0.92
  -1   9 -11    1.30    0.85
  -2  -9 -11    1.78    0.83
  -2   9 -11    5.38    1.21
  -2   9 -11    3.25    0.90
  -3  -9 -11    1.44    0.80
  -3  -9 -11    2.84    0.66
  -3   9 -11    1.41    0.83
  -3   9 -11    2.25    0.97
  -4  -9 -11    0.61    0.49
   4  -9  11    0.98    0.61
  -4  -9 -11   -1.30    0.72
  -4   9 -11    0.77    0.97
  -5  -9 -11    1.30    0.63
  -5  -9 -11    1.52    0.95
   5  -9  11    1.57    0.78
  -5   9 -11    2.73    1.16
   6  -9  11    0.61    0.66
  -6  -9 -11   -0.21    0.55
  -6   9 -11    1.75    1.03
  -7  -9 -11    0.52    0.64
   7  -9  11   -1.13    0.58
  -7   9 -11    1.15    1.05
   8  -9  11    1.50    0.92
  -8  -9 -11    1.74    0.81
   9  -9  11    1.58    0.95
  -9  -9 -11    1.58    0.85
  14 -10 -11    5.14    0.95
  14 -10 -11    0.58    1.25
 -14 -10  11    0.39    1.26
 -13 -10  11   -1.30    0.92
  13 -10 -11    2.57    0.86
  13 -10 -11   -0.04    1.12
  13  10 -11    2.89    0.93
 -12 -10  11   -0.51    0.94
  12 -10 -11    1.70    0.77
  12 -10 -11   -0.89    0.84
  12  10 -11    1.43    0.81
  11 -10 -11    0.70    0.64
 -11 -10  11   -0.03    0.93
  11 -10 -11    0.06    0.91
  11  10 -11    1.41    0.83
  10 -10 -11    2.77    0.84
 -10 -10  11    1.06    0.92
  10 -10 -11    2.20    1.00
  10  10 -11    2.99    0.97
   9 -10 -11    2.91    0.90
   9 -10 -11    3.17    0.90
   9  10 -11    5.04    1.10
   8 -10 -11    0.80    0.64
   8  10 -11    1.95    0.78
   7 -10 -11    2.06    0.76
   7  10 -11    2.14    0.81
   6 -10 -11    3.35    0.83
   6  10 -11    0.33    0.43
   5 -10 -11    5.42    0.97
   5  10 -11    2.16    0.60
   4 -10 -11    1.33    0.70
   4  10 -11    0.94    0.51
   3 -10 -11    2.90    0.84
   3  10 -11    1.34    0.64
   2 -10 -11    0.01    0.66
   2  10 -11   -0.07    0.63
   1 -10 -11    7.02    1.03
   1  10 -11    5.87    1.02
   1  10 -11    8.99    1.15
   0 -10 -11    5.87    0.96
   0  10 -11    4.97    0.98
   0  10 -11    5.94    1.10
  -1 -10 -11    2.42    0.78
  -1  10 -11    1.08    0.77
  -1  10 -11    3.24    0.90
  -2 -10 -11    3.69    0.97
  -2  10 -11    3.23    0.91
  -2  10 -11    5.34    1.13
  -3 -10 -11   -0.91    0.66
  -3 -10 -11    0.59    0.52
  -3  10 -11    0.92    0.94
  -3  10 -11    0.23    0.73
  -4 -10 -11    4.67    1.06
   4 -10  11    6.62    1.05
  -4 -10 -11    3.49    0.71
  -5 -10 -11    5.21    0.89
   5 -10  11    7.24    1.14
   6 -10  11    1.92    0.79
  -6 -10 -11    0.85    0.68
  -7 -10 -11   -0.33    0.61
   7 -10  11   -0.22    0.79
   8 -10  11    0.14    1.05
  -8 -10 -11    0.31    0.72
  13 -11 -11   -0.63    0.98
 -13 -11  11   -0.25    1.10
  13 -11 -11    1.22    0.70
  13  11 -11    1.15    1.42
 -12 -11  11   -2.01    0.94
  12 -11 -11    1.23    0.66
  12 -11 -11   -1.57    0.99
  12  11 -11    0.93    0.74
  11 -11 -11   -1.47    0.92
  11 -11 -11    1.33    0.76
  11  11 -11    1.02    0.82
  10 -11 -11    1.21    0.72
  10  11 -11    0.80    0.78
   9 -11 -11    0.37    0.61
   9  11 -11    0.98    0.82
   8 -11 -11    0.52    0.68
   8  11 -11   -0.02    0.68
   7 -11 -11    1.26    0.72
   7  11 -11   -0.18    0.31
   6 -11 -11    0.20    0.61
   6  11 -11    0.17    0.35
   5 -11 -11    0.09    0.63
   5  11 -11    0.06    0.40
   4 -11 -11   -0.25    0.61
   4  11 -11   -0.08    0.47
   3 -11 -11    0.08    0.62
   3  11 -11    0.22    0.59
   2 -11 -11   -0.34    0.60
   2  11 -11    0.08    0.63
   1 -11 -11   -0.37    0.70
   1  11 -11    0.15    0.60
   0 -11 -11   -0.35    0.68
   0  11 -11   -0.13    0.64
  -1 -11 -11    0.13    0.75
  -1  11 -11    0.28    0.70
  -2 -11 -11   -0.38    0.70
  -2  11 -11    1.45    0.85
  -3 -11 -11   -0.46    0.79
  -3 -11 -11    1.62    0.58
  -3  11 -11    0.71    0.80
   4 -11  11    1.70    0.75
  -4 -11 -11    0.46    0.53
  -5 -11 -11    0.59    0.56
   5 -11  11    0.18    0.71
  -6 -11 -11    1.19    0.66
   6 -11  11    0.65    0.75
  -7 -11 -11    1.27    0.70
  12 -12 -11    0.68    0.71
  12 -12 -11   -1.85    1.10
  11 -12 -11    1.79    0.79
  11  12 -11    0.82    0.88
  10 -12 -11    2.58    0.87
  10  12 -11    4.62    1.08
   9 -12 -11    5.42    1.11
   9  12 -11    3.58    1.00
   8 -12 -11    1.04    0.71
   8  12 -11    0.63    0.51
   7 -12 -11    0.36    0.76
   7  12 -11   -0.22    0.30
   6 -12 -11    0.31    0.75
   6  12 -11    0.06    0.37
   5 -12 -11    3.59    0.97
   4 -12 -11    1.98    0.84
   4  12 -11    1.42    0.64
   3 -12 -11    1.51    0.78
   3  12 -11    1.59    0.83
   2 -12 -11    0.29    0.78
   2  12 -11    0.08    0.68
   1 -12 -11    2.06    0.90
   1  12 -11    2.84    0.91
   0 -12 -11    6.46    1.07
   0  12 -11    4.13    1.02
  -1 -12 -11    4.91    1.06
  -1  12 -11    3.68    1.03
  -2 -12 -11    0.01    0.76
  -2 -12 -11    2.14    0.67
  -2  12 -11    0.88    0.80
  -3 -12 -11    0.30    0.56
  -3  12 -11   -0.48    0.69
   4 -12  11    7.10    1.13
  -4 -12 -11    4.56    0.90
  -5 -12 -11    4.30    0.88
   5 -12  11    6.24    1.24
  -6 -12 -11    1.49    0.69
  11 -13 -11    1.81    0.82
  10 -13 -11    3.13    1.01
  10  13 -11    2.46    1.01
   9 -13 -11    1.59    0.91
   9  13 -11    0.73    0.56
   8 -13 -11    0.20    0.73
   8  13 -11    0.07    0.38
   7 -13 -11    0.95    0.82
   7  13 -11    1.02    0.55
   6 -13 -11   -0.32    0.65
   6  13 -11    0.02    0.33
   5 -13 -11    1.49    0.87
   5  13 -11    0.29    0.60
   4 -13 -11   -0.03    0.68
   4  13 -11    0.50    0.68
   3 -13 -11    0.41    0.80
   3  13 -11    0.98    0.74
   2 -13 -11   -0.77    0.74
   2  13 -11    0.65    0.65
   1 -13 -11    0.48    0.82
   1  13 -11    1.21    0.74
   0 -13 -11   -0.15    0.77
   0  13 -11    0.11    0.66
  -1 -13 -11   -0.29    0.85
  -1  13 -11   -0.22    0.73
  -2 -13 -11    0.70    0.59
  -2  13 -11    0.53    0.87
  -3 -13 -11    0.44    0.52
  -3  13 -11   -0.14    0.79
  -4 -13 -11   -0.01    0.58
  -5 -13 -11    0.72    0.70
   9 -14 -11    3.83    1.07
   8 -14 -11   -0.18    0.79
   7 -14 -11    0.34    0.76
   7  14 -11    0.41    0.52
   6 -14 -11    2.66    0.97
   6  14 -11    1.13    0.70
   5 -14 -11    2.45    0.99
   5  14 -11    1.78    0.84
   4 -14 -11    0.17    0.80
   4  14 -11    1.76    0.82
   3 -14 -11    2.10    0.97
   3  14 -11    1.51    0.79
   2 -14 -11    0.09    0.74
   2  14 -11    0.62    0.70
   1 -14 -11    3.57    1.09
   1  14 -11    3.71    1.09
   0 -14 -11    3.23    1.08
   0  14 -11    4.06    1.04
  -1 -14 -11    3.77    0.77
  -2 -14 -11    3.52    0.81
  -3 -14 -11    1.31    0.62
   6 -15 -11   -0.34    0.78
   5 -15 -11    0.94    0.85
   4 -15 -11    0.68    0.91
   3 -15 -11    1.17    1.00
   2 -15 -11   -0.97    0.81
   1 -15 -11   -0.99    0.85
  17   0 -12    3.21    1.23
  16   0 -12    0.17    0.89
  15   0 -12   -1.31    0.73
  14   0 -12   -0.60    0.78
  13   0 -12   -0.10    0.79
  12   0 -12    2.15    0.86
  11   0 -12    0.49    0.74
  10   0 -12    0.99    0.77
   9   0 -12   11.46    1.24
   9   0 -12   10.49    0.91
   8   0 -12   28.53    1.51
   8   0 -12   26.93    1.35
   7   0 -12   30.13    1.54
   7   0 -12   31.17    1.45
   6   0 -12    1.11    0.57
   6   0 -12    0.42    0.54
   5   0 -12    2.90    0.60
   5   0 -12    2.44    0.60
   4   0 -12    4.89    0.78
   4   0 -12    4.19    0.63
   3   0 -12    3.56    0.77
   3   0 -12    3.22    0.54
   2   0 -12    6.34    0.86
   2   0 -12    6.30    0.64
   1   0 -12    3.43    0.78
   1   0 -12    2.59    0.48
   0   0 -12    2.76    0.89
   0   0 -12    2.80    0.48
  -1   0 -12    8.43    1.10
  -1   0 -12    9.18    0.75
  -2   0 -12   27.06    1.69
  -3   0 -12    0.02    0.80
  -4   0 -12    0.75    0.82
  -5   0 -12    8.88    1.26
  -6   0 -12   11.94    1.41
  -7   0 -12   42.75    2.50
  -8   0 -12   11.84    1.56
  -9   0 -12   -0.25    1.00
 -10   0 -12    2.56    1.07
 -11   0 -12    6.85    1.46
  17  -1 -12    0.32    0.94
  17   1 -12    1.08    0.93
  16  -1 -12   -0.29    0.88
  16   1 -12   -0.54    0.92
  15  -1 -12    0.69    0.98
  15   1 -12    0.13    0.84
  14  -1 -12    0.32    0.83
  14   1 -12   -0.28    0.89
  13  -1 -12    1.09    0.93
  13   1 -12    0.84    0.83
  12  -1 -12    1.77    0.84
  12   1 -12    2.28    0.87
  11  -1 -12    0.95    0.78
  11   1 -12    2.47    0.93
  10  -1 -12    0.60    0.52
  10  -1 -12    0.90    0.75
  10   1 -12   -1.14    0.62
   9  -1 -12    1.55    0.84
   9  -1 -12    1.71    0.59
   9   1 -12    0.97    0.80
   9   1 -12    2.37    0.69
   8  -1 -12    2.80    0.64
   8  -1 -12    2.94    0.84
   8   1 -12    2.72    0.63
   8   1 -12    2.07    0.80
   7  -1 -12    0.31    0.62
   7  -1 -12    0.09    0.49
   7   1 -12   -0.24    0.49
   7   1 -12   -0.17    0.53
   6  -1 -12   -0.70    0.49
   6  -1 -12    0.23    0.51
   6   1 -12    0.12    0.52
   6   1 -12    0.07    0.47
   5  -1 -12    1.10    0.57
   5  -1 -12    0.01    0.44
   5   1 -12    0.45    0.52
   5   1 -12    0.25    0.48
   4  -1 -12   -0.64    0.39
   4  -1 -12    1.18    0.55
   4   1 -12   -0.24    0.55
   4   1 -12   -0.26    0.44
   3  -1 -12    1.54    0.61
   3  -1 -12    2.41    0.47
   3   1 -12    1.81    0.63
   3   1 -12    1.44    0.49
   2  -1 -12   -0.21    0.34
   2  -1 -12    0.32    0.58
   2   1 -12   -0.03    0.39
   2   1 -12    0.04    0.59
   1  -1 -12   -0.49    0.28
   1  -1 -12   -0.14    0.60
   1   1 -12    1.02    0.45
   1   1 -12    0.84    0.73
   0  -1 -12    3.96    0.87
   0   1 -12    3.83    0.58
   0   1 -12    4.26    0.96
  -1  -1 -12    0.81    0.82
  -1   1 -12    0.44    0.44
  -1   1 -12    0.77    0.88
  -2  -1 -12    2.82    0.93
  -2   1 -12    3.75    0.97
  -2   1 -12    3.76    0.62
  -3  -1 -12    2.45    0.92
  -3  -1 -12    1.73    0.41
  -3   1 -12    2.13    0.88
  -4  -1 -12   -0.74    0.76
  -4  -1 -12    0.56    0.58
  -4   1 -12   -0.07    0.86
  -5  -1 -12   -0.51    0.87
  -5   1 -12    0.60    0.79
  -6  -1 -12    2.34    1.08
  -6   1 -12    1.71    1.02
  -7  -1 -12    0.55    1.01
  -7   1 -12    0.24    1.02
  -8  -1 -12    2.41    1.12
  -8   1 -12    0.97    0.94
  -9  -1 -12    0.60    0.92
  -9   1 -12    0.75    0.95
 -10  -1 -12    2.32    1.11
 -10   1 -12    0.96    1.07
 -11  -1 -12    1.71    1.11
 -11   1 -12    0.66    1.09
  17  -2 -12    1.55    1.25
  17   2 -12    2.22    1.08
  16  -2 -12    0.27    0.92
  16   2 -12    0.65    0.87
  15  -2 -12    0.63    1.00
  15   2 -12    1.42    0.92
  14  -2 -12    1.65    0.96
  14   2 -12    0.06    0.91
  13  -2 -12    2.10    0.93
  13   2 -12    1.76    0.89
  12  -2 -12    4.01    0.97
  12   2 -12    5.70    1.11
  11  -2 -12    2.46    0.94
  11   2 -12    1.12    0.77
  10  -2 -12    2.08    0.62
  10  -2 -12    1.87    0.89
  10   2 -12    1.44    0.85
   9  -2 -12   14.01    1.26
   9  -2 -12   12.46    1.03
   9   2 -12   14.39    1.32
   8  -2 -12   11.14    1.00
   8  -2 -12   11.59    1.05
   8   2 -12   10.09    0.94
   8   2 -12   13.89    1.22
   7  -2 -12   10.69    1.07
   7  -2 -12   11.74    0.95
   7   2 -12   12.25    1.14
   7   2 -12   12.38    0.99
   6  -2 -12    4.27    0.72
   6  -2 -12    4.55    0.73
   6   2 -12    3.29    0.75
   6   2 -12    4.52    0.74
   5  -2 -12    1.83    0.55
   5  -2 -12    2.27    0.65
   5   2 -12    2.21    0.64
   5   2 -12    2.05    0.60
   4  -2 -12   26.09    1.13
   4  -2 -12   24.30    1.40
   4   2 -12   24.94    1.30
   4   2 -12   25.47    1.29
   3  -2 -12   38.56    1.73
   3  -2 -12   38.57    1.36
   3   2 -12   37.26    1.57
   3   2 -12   39.45    1.75
   2  -2 -12    2.29    0.42
   2  -2 -12    3.34    0.80
   2   2 -12    2.40    0.56
   2   2 -12    3.91    0.85
   1  -2 -12    0.80    0.71
   1   2 -12    0.41    0.45
   1   2 -12    0.07    0.71
   0  -2 -12    1.79    0.73
   0   2 -12    0.96    0.73
   0   2 -12    1.55    0.54
  -1  -2 -12   13.54    1.25
  -1   2 -12   15.73    1.36
  -1   2 -12   16.05    1.04
  -2  -2 -12    9.98    1.20
  -2   2 -12    9.65    1.26
  -2   2 -12    9.34    0.91
  -3  -2 -12    1.69    1.00
   3  -2  12    3.57    0.59
  -3  -2 -12    2.90    0.50
  -3   2 -12    1.40    0.82
  -4  -2 -12    0.18    0.83
  -4  -2 -12   -0.19    0.32
  -4   2 -12   -0.08    0.72
  -5  -2 -12    6.42    0.73
  -5  -2 -12    6.95    1.17
  -5   2 -12    8.02    1.22
  -6  -2 -12    4.93    1.11
  -6   2 -12    2.85    0.98
  -7  -2 -12    1.18    1.07
  -7   2 -12    2.90    1.04
  -8  -2 -12   -0.20    0.98
  -8   2 -12   -0.07    0.86
  -9  -2 -12    1.19    1.03
  -9   2 -12    0.87    0.98
 -10  -2 -12    2.54    1.14
 -10   2 -12    2.45    1.19
 -11   2 -12    1.71    1.22
  16  -3 -12    2.51    1.21
  16   3 -12    2.32    1.11
  15  -3 -12    1.11    1.06
  15   3 -12    2.78    1.05
  14  -3 -12    0.38    0.90
  14   3 -12    1.98    0.98
  13  -3 -12    0.00    0.90
  13   3 -12    0.14    0.84
  12  -3 -12    1.49    0.61
  12  -3 -12    0.37    0.87
  12   3 -12    0.86    0.76
  11  -3 -12   -0.17    0.80
  11  -3 -12    0.67    0.53
  11   3 -12   -0.36    0.65
  10  -3 -12    0.96    0.58
  10  -3 -12    1.67    0.85
  10   3 -12    0.96    0.76
   9  -3 -12    1.78    0.62
   9  -3 -12    2.07    0.84
   9   3 -12    1.37    0.81
   8  -3 -12    0.23    0.56
   8  -3 -12    1.37    0.75
   8   3 -12    0.78    0.73
   7  -3 -12    4.94    0.78
   7  -3 -12    4.54    0.79
   7   3 -12    9.62    1.07
   6  -3 -12    0.14    0.54
   6  -3 -12    0.23    0.50
   6   3 -12    0.18    0.62
   6   3 -12    0.00    0.53
   5  -3 -12    1.74    0.57
   5  -3 -12    2.75    0.67
   5   3 -12    3.70    0.75
   5   3 -12    3.29    0.69
   4  -3 -12    1.47    0.48
   4  -3 -12    1.50    0.61
   4   3 -12    2.10    0.63
   4   3 -12    1.95    0.70
   3  -3 -12    2.48    0.67
   3  -3 -12    1.94    0.42
   3   3 -12    1.97    0.73
   3   3 -12    2.10    0.62
   2  -3 -12    3.07    0.71
   2   3 -12    3.48    0.82
   2   3 -12    1.75    0.61
   1  -3 -12    4.90    0.85
   1   3 -12    2.90    0.65
   1   3 -12    4.48    0.93
   0  -3 -12    0.56    0.67
   0   3 -12   -0.34    0.71
   0   3 -12    0.03    0.46
  -1  -3 -12    1.21    0.83
  -1   3 -12    0.59    0.56
  -1   3 -12    0.52    0.72
  -2  -3 -12   13.36    1.39
  -2   3 -12   11.48    1.01
  -2   3 -12   13.39    1.32
  -3  -3 -12    0.67    0.39
  -3  -3 -12   -0.29    0.88
  -3   3 -12   -0.14    0.54
  -3   3 -12   -0.39    0.82
   4  -3  12    0.28    0.46
  -4  -3 -12   -0.68    0.88
  -4  -3 -12    0.62    0.41
  -4   3 -12    0.42    0.83
  -5  -3 -12    0.69    0.44
  -5  -3 -12    0.93    1.01
  -5   3 -12    0.28    0.78
  -6  -3 -12   -0.31    0.43
  -6  -3 -12    1.12    0.91
  -6   3 -12   -0.45    0.83
  -7  -3 -12   -1.00    0.90
  -7   3 -12    1.25    0.98
  -8  -3 -12    0.80    1.02
  -8   3 -12    0.38    0.91
  -9  -3 -12    0.09    0.99
  -9   3 -12    1.71    1.08
 -10  -3 -12    1.69    1.06
 -10   3 -12   -0.26    0.90
 -11   3 -12    2.47    1.21
  16  -4 -12   -0.41    0.95
  16   4 -12    0.14    0.83
  15  -4 -12   -0.57    0.91
  15   4 -12    0.60    0.92
  14  -4 -12    0.84    0.96
  14   4 -12    1.40    0.92
  13  -4 -12    4.34    1.18
  13  -4 -12    4.75    0.85
  13   4 -12    3.79    1.04
  12  -4 -12    3.58    0.80
  12  -4 -12    1.89    0.88
  12   4 -12    2.58    0.86
  11  -4 -12    1.56    0.83
  11  -4 -12    1.88    0.65
  11   4 -12    1.41    0.83
  10  -4 -12    2.37    0.86
  10  -4 -12    1.64    0.65
  10   4 -12    2.95    0.84
   9  -4 -12    5.36    0.87
   9  -4 -12    5.71    0.98
   9   4 -12    5.70    1.04
   8  -4 -12   -0.31    0.46
   8  -4 -12    0.39    0.70
   8   4 -12    0.29    0.68
   7  -4 -12    8.47    0.97
   7  -4 -12    8.41    0.96
   7   4 -12    8.94    1.10
   6  -4 -12    2.27    0.66
   6  -4 -12    3.15    0.75
   6   4 -12    3.07    0.67
   6   4 -12    2.70    0.71
   5  -4 -12    1.36    0.62
   5  -4 -12    2.73    0.58
   5   4 -12    2.18    0.66
   5   4 -12    2.23    0.65
   4  -4 -12   22.66    1.33
   4  -4 -12   23.86    1.08
   4   4 -12   23.89    1.40
   4   4 -12   22.57    1.37
   3  -4 -12   10.89    1.03
   3   4 -12    9.39    1.03
   3   4 -12   11.03    1.08
   2  -4 -12    7.48    0.95
   2   4 -12    8.53    1.06
   2   4 -12    8.90    1.00
   1  -4 -12    2.20    0.72
   1   4 -12    1.62    0.80
   1   4 -12    1.57    0.63
   0  -4 -12    2.11    0.78
   0   4 -12    2.42    0.64
   0   4 -12    2.62    0.80
  -1  -4 -12    2.99    0.93
  -1   4 -12    1.73    0.80
  -1   4 -12    3.99    0.77
  -2  -4 -12   35.42    1.85
  -2   4 -12   35.15    1.67
  -2   4 -12   32.23    1.99
  -3  -4 -12    4.09    0.62
  -3  -4 -12    4.21    0.97
  -3   4 -12    5.93    1.17
  -3   4 -12    4.08    0.84
   4  -4  12    1.53    0.55
  -4  -4 -12    1.66    0.98
  -4  -4 -12    0.56    0.42
  -4   4 -12    1.10    0.80
  -5  -4 -12    4.25    1.16
   5  -4  12    5.14    0.81
  -5  -4 -12    4.64    0.72
  -5   4 -12    3.97    1.01
  -6  -4 -12    3.67    0.70
  -6  -4 -12    4.31    1.17
  -6   4 -12    2.63    1.08
  -7  -4 -12    3.29    1.14
  -7  -4 -12    1.89    0.66
  -7   4 -12    3.35    1.18
  -8  -4 -12    0.20    0.66
  -8  -4 -12    0.36    0.97
  -8   4 -12    0.97    0.91
  -9  -4 -12    2.69    1.15
  -9   4 -12    1.48    0.99
 -10   4 -12    2.66    1.24
 -11   4 -12    2.54    1.15
  16  -5 -12    0.24    1.03
  16   5 -12    1.31    0.89
  15  -5 -12    1.21    1.10
  15   5 -12    0.47    0.90
  14  -5 -12   -0.04    1.01
  14  -5 -12    0.65    0.65
  14   5 -12    1.13    0.93
  13  -5 -12   -0.46    0.93
  13  -5 -12    0.95    0.63
  13   5 -12    0.95    0.84
  12  -5 -12    0.96    0.82
  12  -5 -12    1.52    0.68
  12   5 -12    1.71    0.90
  11  -5 -12    0.45    0.85
  11  -5 -12    1.05    0.63
  11   5 -12    0.16    0.66
  10  -5 -12    2.37    0.69
  10  -5 -12    2.70    0.90
  10   5 -12    2.58    0.83
   9  -5 -12    2.72    0.74
   9  -5 -12    2.36    0.74
   9   5 -12    1.24    0.74
   8  -5 -12    3.57    0.74
   8  -5 -12    2.68    0.77
   8   5 -12    2.91    0.81
   7  -5 -12    2.35    0.73
   7  -5 -12    2.19    0.68
   7   5 -12    1.25    0.68
   6  -5 -12    1.02    0.65
   6  -5 -12    0.32    0.59
   6   5 -12    0.28    0.65
   5  -5 -12    4.95    0.82
   5  -5 -12    6.13    0.73
   5   5 -12    6.13    0.80
   5   5 -12    6.31    0.88
   4  -5 -12    4.08    0.78
   4   5 -12    3.89    0.76
   4   5 -12    3.68    0.76
   3  -5 -12    1.77    0.66
   3   5 -12    1.69    0.65
   3   5 -12    0.16    0.63
   2  -5 -12    9.49    1.10
   2   5 -12   11.10    1.18
   2   5 -12   10.21    1.07
   1  -5 -12    2.60    0.74
   1   5 -12    3.08    0.78
   1   5 -12    1.77    0.74
   0  -5 -12    1.19    0.70
   0   5 -12    0.36    0.59
   0   5 -12    0.75    0.79
  -1  -5 -12    0.39    0.77
  -1   5 -12    0.31    0.74
  -1   5 -12   -0.27    0.52
  -2  -5 -12    0.30    0.82
  -2   5 -12    0.86    0.79
  -2   5 -12    0.00    0.63
  -3  -5 -12    8.60    0.89
  -3  -5 -12    8.56    1.16
  -3   5 -12    9.37    1.12
  -3   5 -12   10.24    1.40
  -4  -5 -12    0.86    0.47
   4  -5  12    1.16    0.48
  -4  -5 -12    0.35    0.93
  -4   5 -12    0.78    0.88
   5  -5  12    0.33    0.57
  -5  -5 -12    0.31    0.47
  -5  -5 -12   -1.51    0.92
  -5   5 -12    0.95    0.80
   6  -5  12   -0.53    0.57
  -6  -5 -12   -0.17    0.49
  -6  -5 -12    0.41    1.02
  -6   5 -12   -0.20    0.77
  -7  -5 -12   -0.19    0.99
  -7  -5 -12    0.81    0.56
  -7   5 -12    1.18    0.92
  -8  -5 -12    0.66    1.02
  -8  -5 -12   -0.48    0.56
  -8   5 -12    0.49    0.93
  -9  -5 -12    0.27    0.68
  -9   5 -12    0.34    0.94
 -10   5 -12    3.21    1.18
  16  -6 -12   -1.05    1.03
  16   6 -12    0.82    1.08
  15  -6 -12   -0.70    1.06
  15  -6 -12    1.94    0.86
  15   6 -12    0.20    0.85
  14  -6 -12    1.71    0.68
  14  -6 -12    2.61    1.15
  14   6 -12    1.73    0.95
  13  -6 -12    3.18    1.05
  13  -6 -12    2.48    0.78
  13   6 -12    3.29    0.98
  12  -6 -12    5.38    1.16
  12  -6 -12    4.53    0.85
  12   6 -12    3.48    0.96
  11  -6 -12    1.36    0.62
  11  -6 -12    2.09    0.93
  11   6 -12    0.82    0.74
  10  -6 -12    0.74    0.56
  10  -6 -12    1.81    0.86
  10   6 -12    2.47    0.86
   9  -6 -12    3.94    0.80
   9  -6 -12    4.84    0.93
   9   6 -12    5.70    1.01
   8  -6 -12   17.05    1.24
   8  -6 -12   16.42    1.26
   8   6 -12   16.61    1.33
   7  -6 -12    1.54    0.67
   7  -6 -12    2.01    0.73
   7   6 -12    1.44    0.75
   6  -6 -12    2.27    0.67
   6  -6 -12    3.34    0.80
   6   6 -12    2.89    0.77
   5  -6 -12    8.12    1.02
   5   6 -12    9.03    1.07
   4  -6 -12    8.75    1.02
   4   6 -12    9.96    1.11
   4   6 -12    9.40    1.03
   3  -6 -12    7.94    1.04
   3   6 -12    7.17    1.01
   3   6 -12    6.70    0.94
   2  -6 -12    1.65    0.70
   2   6 -12    1.28    0.63
   2   6 -12    2.07    0.77
   1  -6 -12    0.09    0.62
   1   6 -12   -0.18    0.61
   1   6 -12    0.57    0.65
   0  -6 -12    5.76    0.95
   0   6 -12    5.31    0.99
   0   6 -12    5.16    0.93
  -1  -6 -12    5.54    1.04
  -1   6 -12    5.63    1.04
  -1   6 -12    6.99    1.03
  -2  -6 -12    5.18    0.96
  -2   6 -12    9.44    1.16
  -2   6 -12    7.30    1.16
  -3  -6 -12    1.16    0.53
  -3  -6 -12    0.02    0.83
  -3   6 -12    1.26    0.89
  -3   6 -12    0.73    0.76
  -4  -6 -12   -0.26    0.81
   4  -6  12    0.60    0.53
  -4  -6 -12   -0.37    0.43
  -4   6 -12   -0.31    0.76
  -5  -6 -12    0.20    0.44
   5  -6  12    0.35    0.50
  -5  -6 -12   -0.95    0.91
  -5   6 -12    0.70    0.84
  -6  -6 -12   -0.02    0.54
  -6  -6 -12   -0.88    0.96
   6  -6  12    0.05    0.63
  -6   6 -12   -0.27    0.81
  -7  -6 -12    0.12    0.57
   7  -6  12    0.25    0.72
  -7  -6 -12   -0.22    1.02
  -7   6 -12    1.37    1.06
  -8  -6 -12    0.14    0.64
  -8   6 -12    0.80    0.94
  -9  -6 -12   -0.24    0.68
  -9   6 -12   -0.51    0.87
 -10  -6 -12   -0.62    0.74
 -10   6 -12    0.59    1.13
  15  -7 -12    3.52    0.86
  15  -7 -12    2.46    1.14
  15   7 -12    2.98    1.08
  14  -7 -12    1.57    0.66
  14  -7 -12    0.64    1.09
  14   7 -12    1.38    0.95
  13  -7 -12    0.39    0.58
  13  -7 -12   -0.93    0.84
  13   7 -12    1.22    0.82
  12  -7 -12    1.13    0.64
  12  -7 -12    0.15    0.83
  12   7 -12    0.45    0.75
  11  -7 -12    1.27    0.82
  11  -7 -12    2.14    0.73
  11   7 -12    1.93    0.91
  10  -7 -12   14.83    1.41
  10  -7 -12   12.88    1.20
  10   7 -12   15.87    1.51
   9  -7 -12    1.17    0.77
   9  -7 -12    2.22    0.79
   9   7 -12    1.31    0.73
   8  -7 -12   12.54    1.23
   8  -7 -12   12.23    1.15
   8   7 -12   13.67    1.24
   7  -7 -12    0.93    0.60
   7  -7 -12    1.35    0.66
   7   7 -12    1.19    0.75
   6  -7 -12    1.34    0.63
   5  -7 -12    0.38    0.58
   5   7 -12    0.57    0.65
   4  -7 -12   -0.27    0.53
   4   7 -12   -0.15    0.53
   4   7 -12    0.22    0.73
   3  -7 -12    1.54    0.69
   3   7 -12    1.51    0.66
   3   7 -12    1.64    0.66
   2  -7 -12    5.05    0.95
   2   7 -12    5.41    0.90
   2   7 -12    4.21    0.82
   1  -7 -12    6.84    1.00
   1   7 -12    6.11    0.97
   1   7 -12    6.80    1.03
   0  -7 -12   -0.17    0.61
   0   7 -12    0.21    0.64
   0   7 -12   -0.66    0.67
  -1  -7 -12   -0.43    0.69
  -1   7 -12    0.22    0.77
  -1   7 -12   -0.03    0.65
  -2  -7 -12    1.14    0.81
  -2   7 -12    0.80    0.83
  -2   7 -12    0.69    0.67
  -3  -7 -12   10.11    0.93
  -3  -7 -12    7.10    1.09
  -3   7 -12    9.22    1.33
  -3   7 -12    9.96    1.24
  -4  -7 -12    6.84    1.21
   4  -7  12    7.77    0.97
  -4  -7 -12    7.12    0.90
  -4   7 -12    6.08    1.22
  -5  -7 -12    0.58    0.97
  -5  -7 -12    1.05    0.57
   5  -7  12    2.58    0.74
  -5   7 -12    0.46    0.86
   6  -7  12    0.47    0.70
  -6  -7 -12   -0.92    0.97
  -6  -7 -12   -0.13    0.56
  -6   7 -12    1.13    1.05
  -7  -7 -12    0.32    0.61
   7  -7  12    1.13    0.78
  -7   7 -12    1.87    1.02
  -8  -7 -12    2.41    0.79
   8  -7  12    1.50    0.94
  -8   7 -12    3.12    1.17
  -9  -7 -12    1.76    0.87
  -9   7 -12    3.33    1.33
  15  -8 -12    1.60    0.68
  15  -8 -12   -0.48    1.19
  15   8 -12    3.75    1.73
  14  -8 -12   -1.20    1.04
  14  -8 -12    0.59    0.66
  14   8 -12    1.26    0.93
  13  -8 -12    1.90    1.12
  13  -8 -12    1.23    0.74
  13   8 -12    1.63    0.83
  12  -8 -12    0.29    0.89
  12  -8 -12    1.60    0.76
  12   8 -12    2.64    0.94
  11  -8 -12    0.81    0.61
  11  -8 -12    0.45    0.81
  11   8 -12    0.55    0.74
  10  -8 -12    5.04    0.92
  10  -8 -12    4.72    1.02
  10   8 -12    4.93    1.01
   9  -8 -12    3.57    0.94
   9  -8 -12    4.84    0.96
   9   8 -12    5.17    1.02
   8  -8 -12    2.79    0.83
   8  -8 -12    2.31    0.80
   8   8 -12    3.26    0.85
   7  -8 -12    0.63    0.63
   7   8 -12    0.09    0.64
   6  -8 -12    0.95    0.64
   6   8 -12    2.42    0.77
   5  -8 -12    0.62    0.67
   5   8 -12    0.15    0.64
   4  -8 -12    1.00    0.66
   4   8 -12    1.07    0.56
   3  -8 -12   -0.14    0.59
   3   8 -12    0.41    0.54
   3   8 -12    0.06    0.57
   2  -8 -12   -0.02    0.58
   2   8 -12    0.13    0.60
   2   8 -12   -0.51    0.54
   1  -8 -12    0.61    0.73
   1   8 -12    1.01    0.73
   1   8 -12    1.85    0.83
   0  -8 -12   -0.27    0.70
   0   8 -12   -0.36    0.59
   0   8 -12    0.69    0.77
  -1  -8 -12    1.61    0.86
  -1   8 -12    2.38    0.93
  -1   8 -12    1.38    0.73
  -2  -8 -12    3.49    0.87
  -2   8 -12    3.54    0.96
  -2   8 -12    4.37    1.14
  -3  -8 -12    1.14    0.88
  -3  -8 -12    1.14    0.56
  -3   8 -12    0.82    0.87
  -3   8 -12    1.83    0.92
  -4  -8 -12    3.14    1.04
   4  -8  12    5.88    0.95
  -4  -8 -12    4.57    0.80
  -4   8 -12    4.83    1.26
   5  -8  12    1.88    0.69
  -5  -8 -12    1.35    1.03
  -5  -8 -12    1.81    0.64
  -5   8 -12    1.71    1.00
  -6  -8 -12    1.29    0.66
   6  -8  12    1.72    0.82
  -6  -8 -12   -0.02    1.05
  -6   8 -12    2.89    1.11
   7  -8  12    1.79    0.86
  -7  -8 -12    0.44    0.58
  -7   8 -12    1.96    1.12
  -8  -8 -12   -0.37    0.66
   8  -8  12   -0.87    0.75
  -8   8 -12   -0.94    0.90
  -9  -8 -12    1.67    0.86
  -9   8 -12    1.65    1.21
  15  -9 -12    2.22    0.72
  14  -9 -12   -0.68    1.09
  14  -9 -12    1.79    0.80
  14   9 -12    1.80    0.94
  13  -9 -12    0.90    0.74
  13  -9 -12   -0.66    0.89
  13   9 -12    1.23    0.95
  12  -9 -12    1.62    0.77
  12  -9 -12    0.05    1.01
  12   9 -12    2.10    0.95
  11  -9 -12    2.11    0.75
  11  -9 -12    0.76    0.97
  11   9 -12    2.82    0.91
  10  -9 -12    1.63    0.71
  10  -9 -12    1.44    0.89
  10   9 -12    2.24    0.85
   9  -9 -12    0.21    0.58
   9  -9 -12   -0.81    0.77
   9   9 -12    0.90    0.71
   8  -9 -12    0.55    0.65
   8   9 -12    0.71    0.66
   7  -9 -12    0.85    0.64
   7   9 -12    1.78    0.74
   6  -9 -12    4.42    0.96
   6   9 -12    4.09    0.98
   5  -9 -12    6.33    1.01
   4  -9 -12    2.29    0.82
   4   9 -12    0.72    0.43
   3  -9 -12   -0.86    0.55
   3   9 -12    0.35    0.52
   2  -9 -12    7.60    1.13
   2   9 -12    8.88    1.13
   2   9 -12    8.23    1.18
   1  -9 -12    7.44    1.09
   1   9 -12    8.66    1.18
   1   9 -12    9.04    1.17
   0  -9 -12    1.36    0.82
   0   9 -12    0.49    0.70
   0   9 -12    2.58    0.80
  -1  -9 -12   -0.25    0.73
  -1   9 -12    0.27    0.83
  -1   9 -12   -0.22    0.66
  -2  -9 -12    1.76    0.89
  -2   9 -12    1.84    1.04
  -2   9 -12    0.84    0.85
  -3  -9 -12    3.19    0.94
  -3  -9 -12    3.24    0.74
  -3   9 -12    3.89    1.03
  -3   9 -12    4.05    1.26
   4  -9  12    9.02    1.17
  -4  -9 -12    7.27    0.96
  -4  -9 -12    7.47    1.30
  -4   9 -12    9.78    1.57
  -5  -9 -12    1.45    1.07
  -5  -9 -12    2.24    0.66
   5  -9  12    3.11    0.83
  -5   9 -12    4.83    1.27
   6  -9  12    0.19    0.72
  -6  -9 -12    1.45    0.72
  -6   9 -12    2.32    1.15
   7  -9  12   -0.02    0.80
  -7  -9 -12    0.95    0.70
  -7   9 -12    3.98    1.33
  -8  -9 -12    0.16    0.67
   8  -9  12   -0.87    0.67
  14 -10 -12    2.40    0.84
  14 -10 -12   -0.26    1.19
  13 -10 -12    0.11    0.98
  13 -10 -12    1.48    0.81
  13  10 -12    2.54    0.97
 -12 -10  12   -1.41    0.88
  12 -10 -12    0.96    0.76
  12 -10 -12    0.28    1.03
  12  10 -12    2.47    0.97
  11 -10 -12    2.19    0.96
 -11 -10  12    1.33    1.56
  11 -10 -12    4.24    0.94
  11  10 -12    3.97    1.01
  10 -10 -12    2.32    0.81
  10  10 -12    2.78    0.97
   9 -10 -12    0.16    0.61
   9  10 -12    1.43    0.79
   8 -10 -12    0.98    0.76
   8  10 -12    1.63    0.87
   7 -10 -12   -0.58    0.65
   7  10 -12    0.93    0.78
   6 -10 -12    0.39    0.63
   6  10 -12    0.54    0.39
   5 -10 -12    0.00    0.69
   5  10 -12   -0.26    0.32
   4 -10 -12    0.11    0.70
   4  10 -12    0.18    0.39
   3 -10 -12   -0.24    0.64
   3  10 -12   -0.78    0.45
   2 -10 -12    1.17    0.73
   2  10 -12    1.01    0.72
   1 -10 -12    3.77    0.95
   1  10 -12    2.69    0.81
   1  10 -12    3.95    0.92
   0 -10 -12    9.11    1.23
   0  10 -12    9.55    1.28
   0  10 -12   12.91    1.51
  -1 -10 -12    1.44    0.85
  -1  10 -12    2.54    0.98
  -1  10 -12    1.21    0.79
  -2 -10 -12   -0.71    0.76
  -2  10 -12   -0.71    0.74
  -2  10 -12    1.53    0.89
  -3 -10 -12    1.47    0.60
  -3 -10 -12   -0.75    0.72
  -3  10 -12    0.00    0.89
  -3  10 -12    1.38    1.00
  -4 -10 -12    1.25    1.02
   4 -10  12    1.88    0.68
  -4 -10 -12    1.83    0.63
  -4  10 -12    2.78    1.14
   5 -10  12    6.78    1.07
  -5 -10 -12    5.43    0.95
  -5  10 -12    5.56    1.31
  -6 -10 -12    2.89    0.81
   6 -10  12    3.63    1.04
   7 -10  12    0.51    0.74
  -7 -10 -12    0.62    0.68
 -13 -11  12   -2.31    1.09
  13 -11 -12    1.55    0.76
  13 -11 -12   -1.25    1.07
  12 -11 -12    2.98    1.46
  12 -11 -12    3.27    0.93
  12  11 -12    3.41    1.00
  11 -11 -12    3.24    0.93
  11  11 -12    2.70    1.00
  10 -11 -12    1.97    0.80
  10  11 -12    3.63    1.06
   9 -11 -12    1.54    0.78
   9  11 -12    1.98    0.90
   8 -11 -12    0.57    0.74
   8  11 -12    0.88    0.76
   7 -11 -12    1.34    0.83
   7  11 -12    0.66    0.41
   6 -11 -12    6.23    1.14
   5 -11 -12    6.11    1.09
   4 -11 -12    6.66    1.13
   4  11 -12    3.02    0.76
   3 -11 -12   -0.92    0.68
   3  11 -12    0.47    0.61
   2 -11 -12    8.53    1.27
   2  11 -12    7.05    1.11
   1  11 -12    6.77    1.17
   0 -11 -12    8.95    1.26
   0  11 -12    5.74    1.06
  -1 -11 -12    0.46    0.87
  -1  11 -12    1.76    0.95
  -2 -11 -12    0.29    0.90
  -2 -11 -12    0.73    0.50
  -2  11 -12   -0.94    0.65
  -3 -11 -12    4.97    0.83
  -3 -11 -12    4.55    1.16
  -3  11 -12    5.58    1.27
   4 -11  12    7.70    1.14
  -4 -11 -12    5.58    0.92
  -5 -11 -12   -0.24    0.57
   5 -11  12    0.89    0.68
  -6 -11 -12   -0.10    0.63
   6 -11  12    0.55    1.31
  12 -12 -12    0.57    0.78
  11 -12 -12    0.66    0.71
  11  12 -12    1.66    1.11
  10 -12 -12    0.12    0.74
  10  12 -12    1.36    0.82
   9 -12 -12    0.77    0.78
   9  12 -12    0.25    0.73
   8 -12 -12   -0.26    0.64
   8  12 -12   -0.16    0.33
   7 -12 -12    0.59    0.81
   7  12 -12    0.02    0.31
   6 -12 -12    2.08    0.86
   6  12 -12    0.63    0.39
   5 -12 -12    3.34    0.93
   5  12 -12    1.80    0.68
   4 -12 -12   -0.20    0.67
   4  12 -12    0.17    0.59
   3 -12 -12   -0.77    0.72
   3  12 -12   -0.41    0.50
   2 -12 -12    0.47    0.82
   2  12 -12    0.45    0.64
   1 -12 -12   -0.37    0.77
   1  12 -12    0.31    0.64
   0 -12 -12   -0.16    0.80
   0  12 -12    0.27    0.71
  -1 -12 -12   -0.69    0.81
  -1  12 -12    0.88    0.78
  -2 -12 -12   -0.65    0.87
  -2 -12 -12    0.73    0.56
  -2  12 -12   -0.34    0.78
  -3 -12 -12    0.39    0.59
  -3  12 -12   -0.14    0.89
   4 -12  12    2.67    0.87
  -4 -12 -12    1.69    0.74
  -5 -12 -12    1.32    0.70
  10 -13 -12    4.00    1.15
   9 -13 -12    0.89    0.91
   9  13 -12    1.16    0.81
   8 -13 -12    0.05    0.82
   8  13 -12    0.31    0.43
   7 -13 -12    3.20    1.08
   6 -13 -12    1.78    0.86
   6  13 -12    0.73    0.43
   5 -13 -12    2.01    0.96
   5  13 -12    1.07    0.62
   4 -13 -12    2.84    1.02
   4  13 -12    1.05    0.70
   3 -13 -12   -0.65    0.78
   3  13 -12    0.34    0.68
   2 -13 -12    2.80    1.01
   2  13 -12    1.73    0.77
   1 -13 -12    5.13    1.20
   1  13 -12    5.26    1.12
   0 -13 -12    1.67    0.99
   0  13 -12    2.72    0.98
  -1 -13 -12   -0.40    0.84
  -1  13 -12    0.24    0.73
  -2 -13 -12    0.39    0.53
  -2  13 -12   -0.83    0.70
  -3 -13 -12    3.03    0.81
  -4 -13 -12    2.38    0.79
   8 -14 -12   -0.13    0.88
   7 -14 -12    0.09    0.80
   6 -14 -12    1.13    0.90
   5 -14 -12   -0.16    0.73
   5  14 -12    0.16    0.86
   4 -14 -12    1.28    0.96
   4  14 -12   -0.09    0.67
   3 -14 -12   -0.37    0.88
   3  14 -12    0.07    0.68
   2 -14 -12   -0.06    0.83
   2  14 -12   -0.67    0.82
   1 -14 -12   -1.38    0.86
   0 -14 -12   -1.30    0.88
  -1 -14 -12    1.23    0.62
  -2 -14 -12    1.44    0.61
   4 -15 -12   -0.37    0.91
   3 -15 -12    1.20    1.05
   2 -15 -12    1.72    1.11
  17   0 -13    0.59    1.15
  16   0 -13   -0.29    1.02
  15   0 -13    0.97    1.02
  14   0 -13   -0.09    0.93
  13   0 -13    0.29    0.84
  12   0 -13    0.32    0.77
  11   0 -13    1.31    0.87
  10   0 -13   -0.26    0.67
   9   0 -13    0.11    0.54
   9   0 -13   -0.07    0.77
   8   0 -13   -0.06    0.68
   8   0 -13   -0.17    0.55
   7   0 -13   -0.54    0.59
   7   0 -13    0.13    0.52
   6   0 -13    0.14    0.55
   6   0 -13    0.48    0.58
   5   0 -13    0.66    0.57
   5   0 -13    0.32    0.53
   4   0 -13    0.20    0.58
   4   0 -13   -0.58    0.43
   3   0 -13   -0.36    0.41
   3   0 -13    0.79    0.72
   2   0 -13   -0.05    0.71
   2   0 -13    0.07    0.38
   1   0 -13    1.04    0.73
   1   0 -13   -0.04    0.36
   0   0 -13    0.37    0.77
  -1   0 -13    0.59    0.81
  -2   0 -13   -0.31    0.78
  -3   0 -13   -0.47    0.77
  -4   0 -13    0.44    0.80
  -5   0 -13    0.76    0.96
  -6   0 -13   -1.04    0.77
  -7   0 -13   -0.33    0.97
  -8   0 -13    0.10    0.92
  -9   0 -13   -1.49    0.97
 -10   0 -13    1.18    1.10
  17  -1 -13    0.54    1.19
  16  -1 -13    2.18    1.12
  16   1 -13    0.87    1.02
  15  -1 -13    1.69    0.97
  15   1 -13    1.70    0.94
  14  -1 -13    3.12    1.02
  14   1 -13    1.63    0.93
  13  -1 -13    0.52    0.95
  13   1 -13    0.14    0.81
  12  -1 -13   -0.31    0.74
  12   1 -13    0.02    0.75
  11  -1 -13    3.12    0.97
  11   1 -13    2.59    0.89
  10  -1 -13   23.15    1.60
  10  -1 -13   21.84    1.32
  10   1 -13   21.44    1.60
   9  -1 -13   15.06    1.14
   9  -1 -13   18.37    1.31
   9   1 -13   15.67    1.63
   9   1 -13   14.47    1.35
   8  -1 -13    9.02    0.95
   8  -1 -13   11.75    1.16
   8   1 -13    7.93    1.03
   8   1 -13   10.32    1.02
   7  -1 -13    4.25    0.82
   7  -1 -13    4.09    0.75
   7   1 -13    2.87    0.71
   7   1 -13    3.90    0.83
   6  -1 -13    0.21    0.55
   6  -1 -13    0.92    0.62
   6   1 -13    0.57    0.63
   6   1 -13    1.51    0.68
   5  -1 -13   24.45    1.22
   5  -1 -13   24.29    1.40
   5   1 -13   22.56    1.23
   5   1 -13   24.25    1.41
   4  -1 -13    9.82    0.80
   4  -1 -13   10.87    1.03
   4   1 -13    9.65    0.88
   4   1 -13   12.66    1.06
   3  -1 -13    5.64    0.94
   3  -1 -13    5.62    0.64
   3   1 -13    3.91    0.79
   3   1 -13    5.99    0.75
   2  -1 -13   -0.06    0.35
   2  -1 -13    0.37    0.67
   2   1 -13    0.21    0.66
   2   1 -13   -0.23    0.40
   1  -1 -13    5.51    1.03
   1   1 -13    4.22    0.63
   1   1 -13    3.07    0.88
   0  -1 -13   20.03    1.46
   0   1 -13   20.87    1.63
   0   1 -13   21.09    1.10
  -1  -1 -13   16.47    1.58
  -1   1 -13   18.93    1.52
  -1   1 -13   19.56    1.24
  -2  -1 -13    3.41    1.08
  -2   1 -13    3.37    0.98
  -3  -1 -13    0.82    0.88
  -3   1 -13   -0.34    0.75
  -4  -1 -13    3.54    1.04
  -4   1 -13    4.24    1.12
  -5  -1 -13    5.32    1.14
  -5   1 -13    3.80    1.02
  -6  -1 -13   13.24    1.60
  -6   1 -13   16.83    1.79
  -7  -1 -13   -0.44    0.98
  -7   1 -13    0.72    1.06
  -8  -1 -13    2.82    1.23
  -8   1 -13    2.62    1.18
  -9  -1 -13    5.72    1.31
  -9   1 -13    4.39    1.26
 -10  -1 -13    5.13    1.38
 -10   1 -13    4.37    1.23
  16  -2 -13    1.33    1.06
  16   2 -13    0.73    0.95
  15  -2 -13    0.33    0.84
  15   2 -13    0.43    0.88
  14  -2 -13    0.82    0.89
  14   2 -13   -0.23    0.82
  13  -2 -13    1.36    0.86
  13   2 -13    0.70    0.84
  12  -2 -13   -0.05    0.81
  12   2 -13   -0.30    0.79
  11  -2 -13   -0.11    0.51
  11  -2 -13    0.12    0.78
  11   2 -13    0.31    0.77
  10  -2 -13    0.90    0.72
  10  -2 -13    0.76    0.58
  10   2 -13   -0.29    0.65
   9  -2 -13    2.48    0.68
   9  -2 -13    2.46    0.79
   9   2 -13    2.25    0.77
   8  -2 -13    4.15    0.85
   8  -2 -13    3.63    0.75
   8   2 -13    5.05    0.84
   8   2 -13    3.39    0.86
   7  -2 -13    0.85    0.66
   7  -2 -13    1.07    0.62
   7   2 -13    0.34    0.59
   7   2 -13   -0.24    0.61
   6  -2 -13    0.60    0.61
   6  -2 -13    0.39    0.61
   6   2 -13    1.03    0.66
   6   2 -13    0.19    0.62
   5  -2 -13    6.25    0.91
   5  -2 -13    5.84    0.73
   5   2 -13    5.82    0.90
   5   2 -13    6.13    0.87
   4  -2 -13    1.38    0.49
   4  -2 -13    0.63    0.58
   4   2 -13    1.25    0.71
   4   2 -13   -0.43    0.48
   3  -2 -13    1.19    0.75
   3  -2 -13    1.18    0.45
   3   2 -13    1.59    0.59
   3   2 -13    1.61    0.77
   2  -2 -13    0.75    0.67
   2   2 -13    0.64    0.77
   2   2 -13    0.42    0.49
   1  -2 -13    0.80    0.82
   1   2 -13    1.30    0.74
   1   2 -13   -0.71    0.44
   0  -2 -13    0.30    0.73
   0   2 -13   -0.71    0.44
   0   2 -13   -1.36    0.76
  -1  -2 -13   13.37    1.34
  -1   2 -13   16.22    1.57
  -1   2 -13   15.20    1.06
  -2  -2 -13    2.06    1.01
  -2   2 -13    0.39    0.51
  -2   2 -13    1.42    0.85
  -3  -2 -13    0.31    0.84
  -3  -2 -13    0.81    0.40
  -3   2 -13   -0.26    0.70
  -4  -2 -13    0.05    0.38
  -4  -2 -13   -0.56    0.91
  -4   2 -13   -0.49    0.71
  -5  -2 -13   -0.17    0.97
  -5   2 -13    0.63    0.84
  -6  -2 -13   -0.79    0.96
  -6   2 -13    0.56    0.99
  -7  -2 -13    0.86    0.95
  -7   2 -13    2.19    1.09
  -8  -2 -13    0.12    0.97
  -8   2 -13    0.74    1.06
  -9  -2 -13    1.21    1.07
  -9   2 -13    0.97    1.11
 -10  -2 -13    1.73    1.11
 -10   2 -13    2.06    1.11
  16  -3 -13    0.88    0.97
  16   3 -13    1.91    1.11
  15  -3 -13    3.00    1.19
  15   3 -13    1.56    0.95
  14  -3 -13    2.62    1.03
  14   3 -13    1.62    0.98
  13  -3 -13    1.47    1.02
  13   3 -13    1.00    0.84
  12  -3 -13    2.08    0.89
  12  -3 -13    1.59    0.63
  12   3 -13    1.42    0.94
  11  -3 -13   -0.42    0.50
  11  -3 -13   -0.31    0.80
  11   3 -13   -0.20    0.70
  10  -3 -13    5.81    1.04
  10  -3 -13    6.92    0.93
  10   3 -13    6.15    1.07
   9  -3 -13    0.53    0.75
   9  -3 -13    0.37    0.57
   9   3 -13    0.41    0.63
   8  -3 -13    4.39    0.85
   8  -3 -13    4.80    0.87
   8   3 -13    6.55    0.98
   7  -3 -13   -0.02    0.64
   7  -3 -13    0.80    0.64
   7   3 -13   -0.04    0.60
   7   3 -13    0.22    0.59
   6  -3 -13    0.32    0.55
   6  -3 -13    0.79    0.59
   6   3 -13    2.16    0.69
   6   3 -13    1.75    0.70
   5  -3 -13   20.68    1.11
   5  -3 -13   21.72    1.34
   5   3 -13   21.82    1.37
   5   3 -13   22.27    1.29
   4  -3 -13    6.44    0.97
   4  -3 -13    5.35    0.64
   4   3 -13    4.74    0.86
   4   3 -13    5.36    0.81
   3  -3 -13    3.51    0.78
   3   3 -13    3.56    0.81
   3   3 -13    3.15    0.71
   2  -3 -13    0.66    0.75
   2   3 -13    0.72    0.75
   2   3 -13    0.88    0.58
   1  -3 -13    1.50    0.82
   1   3 -13    2.43    0.66
   1   3 -13    2.14    0.92
   0  -3 -13    0.80    0.74
   0   3 -13    0.30    0.81
   0   3 -13   -0.28    0.47
  -1  -3 -13   27.02    1.67
  -1   3 -13   21.58    1.62
  -1   3 -13   25.51    1.37
  -2  -3 -13    2.56    1.01
  -2   3 -13    4.35    0.79
  -2   3 -13    4.11    1.00
  -3  -3 -13    0.84    0.40
   3  -3  13    0.57    0.71
  -3  -3 -13    1.05    0.97
  -3   3 -13   -0.76    0.78
  -4  -3 -13    7.67    0.80
  -4  -3 -13    6.39    1.19
  -4   3 -13    8.15    1.24
  -5  -3 -13    2.88    0.63
  -5  -3 -13    3.07    1.18
  -5   3 -13    3.73    1.13
  -6  -3 -13    3.47    1.11
  -6   3 -13    4.43    1.13
  -7  -3 -13    1.18    1.12
  -7   3 -13    2.33    1.09
  -8  -3 -13    0.62    1.05
  -8   3 -13    1.27    1.06
  -9  -3 -13    2.40    1.17
  -9   3 -13    1.43    1.04
 -10  -3 -13    1.80    1.11
 -10   3 -13    1.27    1.21
  16  -4 -13    1.56    1.19
  16   4 -13    2.13    1.00
  15  -4 -13    1.99    1.14
  15   4 -13    0.40    0.90
  14  -4 -13   -0.73    0.82
  14   4 -13    0.17    0.84
  13  -4 -13   -0.96    0.90
  13  -4 -13   -0.09    0.59
  13   4 -13    0.54    0.79
  12  -4 -13   -0.34    0.51
  12  -4 -13    0.07    0.88
  12   4 -13    0.28    0.81
  11  -4 -13    0.18    0.74
  11  -4 -13    0.46    0.57
  11   4 -13    0.23    0.67
  10  -4 -13    4.37    0.97
  10  -4 -13    4.25    0.83
  10   4 -13    5.08    0.98
   9  -4 -13    0.53    0.76
   9  -4 -13    1.09    0.58
   9   4 -13    0.62    0.75
   8  -4 -13   -0.05    0.70
   8  -4 -13   -0.10    0.58
   8   4 -13   -0.13    0.69
   7  -4 -13    2.27    0.76
   7  -4 -13    1.12    0.65
   7   4 -13    1.81    0.78
   6  -4 -13    1.72    0.60
   6  -4 -13    0.61    0.59
   6   4 -13    1.20    0.65
   6   4 -13    1.58    0.71
   5  -4 -13    2.26    0.70
   5  -4 -13    2.37    0.60
   5   4 -13    1.82    0.68
   5   4 -13    2.06    0.74
   4  -4 -13    3.77    0.80
   4   4 -13    4.61    0.87
   4   4 -13    6.18    0.93
   3  -4 -13    6.58    0.96
   3   4 -13    6.96    0.96
   3   4 -13    7.48    0.97
   2  -4 -13    9.39    1.09
   2   4 -13    9.41    1.09
   2   4 -13   10.21    1.06
   1  -4 -13   -0.02    0.75
   1   4 -13    0.12    0.76
   1   4 -13   -0.19    0.57
   0  -4 -13    1.12    0.83
   0   4 -13    0.83    0.85
   0   4 -13    0.00    0.54
  -1  -4 -13    2.26    0.93
  -1   4 -13    2.69    0.99
  -1   4 -13    2.77    0.75
  -2  -4 -13    6.26    1.16
  -2   4 -13    4.73    1.05
  -2   4 -13    6.21    0.93
  -3  -4 -13    1.19    0.89
  -3  -4 -13    1.44    0.48
  -3   4 -13    0.30    0.63
  -3   4 -13    0.01    0.78
  -4  -4 -13   -0.22    0.87
  -4  -4 -13    0.81    0.44
   4  -4  13    0.91    0.62
  -4   4 -13   -0.04    0.77
  -5  -4 -13    0.40    1.03
  -5  -4 -13    1.23    0.55
  -5   4 -13    0.59    0.92
  -6  -4 -13    3.06    1.23
  -6  -4 -13    2.78    0.66
  -6   4 -13    4.39    1.19
  -7  -4 -13    1.85    1.04
  -7   4 -13    0.81    0.92
  -8  -4 -13   -1.13    1.00
  -8   4 -13    0.73    1.03
  -9  -4 -13    1.45    1.08
  -9   4 -13   -0.46    1.03
 -10   4 -13    0.59    1.00
  16  -5 -13    0.73    1.19
  16   5 -13    0.39    0.90
  15  -5 -13    1.91    1.16
  15   5 -13    1.59    0.99
  14  -5 -13    1.74    1.10
  14  -5 -13    1.24    0.67
  14   5 -13    1.62    0.95
  13  -5 -13    1.41    0.92
  13  -5 -13    1.09    0.65
  13   5 -13    1.88    0.88
  12  -5 -13    0.24    0.62
  12  -5 -13   -0.55    0.86
  12   5 -13    0.82    0.79
  11  -5 -13    0.09    0.82
  11  -5 -13   -0.59    0.56
  11   5 -13   -0.27    0.67
  10  -5 -13    0.27    0.62
  10  -5 -13    0.22    0.76
  10   5 -13    1.65    0.74
   9  -5 -13    6.87    1.02
   9  -5 -13    5.64    0.90
   9   5 -13    6.59    1.06
   8  -5 -13    3.05    0.83
   8  -5 -13    2.50    0.80
   8   5 -13    2.82    0.80
   7  -5 -13    0.56    0.65
   7  -5 -13    0.08    0.62
   7   5 -13   -0.11    0.58
   6  -5 -13    3.06    0.84
   6  -5 -13    3.65    0.71
   6   5 -13    3.40    0.83
   5  -5 -13    1.97    0.70
   5   5 -13    2.61    0.74
   5   5 -13    3.44    0.85
   4  -5 -13    8.86    1.04
   4   5 -13    8.28    1.03
   4   5 -13    9.70    1.14
   3  -5 -13    5.36    0.98
   3   5 -13    3.60    0.82
   3   5 -13    3.16    0.74
   2  -5 -13    1.25    0.71
   2   5 -13    1.23    0.76
   2   5 -13    0.90    0.60
   1  -5 -13    3.60    0.92
   1   5 -13    2.67    0.79
   1   5 -13    2.12    0.81
   0  -5 -13    4.18    1.00
   0   5 -13    4.90    0.83
   0   5 -13    5.39    1.10
  -1  -5 -13   16.20    1.50
  -1   5 -13   14.69    1.43
  -1   5 -13   16.06    1.28
  -2  -5 -13   -0.12    0.84
  -2   5 -13   -0.28    0.52
  -2   5 -13    0.07    0.74
  -3  -5 -13    0.73    0.94
  -3  -5 -13    0.44    0.44
  -3   5 -13    1.00    0.90
  -3   5 -13    1.04    0.73
  -4  -5 -13    0.31    0.44
   4  -5  13    1.14    0.54
  -4  -5 -13    0.27    1.00
  -4   5 -13    0.01    0.88
  -5  -5 -13    0.77    1.04
   5  -5  13    1.18    0.71
  -5  -5 -13    1.10    0.55
  -5   5 -13    2.73    1.11
  -6  -5 -13    2.50    0.65
  -6  -5 -13    2.52    1.10
  -6   5 -13    4.07    1.21
  -7  -5 -13    0.41    1.04
  -7  -5 -13   -0.75    0.53
  -7   5 -13    0.35    0.91
  -8  -5 -13   -0.75    0.65
  -8  -5 -13    0.70    1.11
  -8   5 -13    1.12    1.01
  -9   5 -13    1.50    1.18
 -10   5 -13    3.89    1.35
  16  -6 -13   -1.19    1.78
  15  -6 -13    0.21    1.09
  15   6 -13    0.55    0.86
  14  -6 -13    1.69    0.75
  14  -6 -13    0.85    1.05
  14   6 -13    2.17    1.01
  13  -6 -13    2.01    0.78
  13  -6 -13    0.60    0.99
  13   6 -13    0.78    0.81
  12  -6 -13    0.16    0.80
  12  -6 -13    1.37    0.64
  12   6 -13    1.71    0.85
  11  -6 -13    6.28    0.98
  11  -6 -13    6.17    1.11
  11   6 -13    6.34    1.23
  10  -6 -13    0.60    0.69
  10  -6 -13    1.08    0.69
  10   6 -13    0.51    0.79
   9  -6 -13   14.96    1.26
   9  -6 -13   15.53    1.26
   9   6 -13   13.95    1.30
   8  -6 -13   19.25    1.38
   8  -6 -13   20.61    1.37
   8   6 -13   19.53    1.43
   7  -6 -13   27.29    1.45
   7  -6 -13   26.94    1.59
   7   6 -13   25.70    1.59
   6  -6 -13   20.74    1.43
   6   6 -13   21.51    1.45
   5  -6 -13    6.00    0.95
   5   6 -13    5.89    0.95
   4  -6 -13    0.17    0.58
   4   6 -13    0.48    0.69
   4   6 -13    0.36    0.63
   3  -6 -13    3.60    0.82
   3   6 -13    3.75    0.85
   3   6 -13    4.16    0.88
   2  -6 -13    8.52    1.14
   2   6 -13    8.50    1.13
   2   6 -13    7.70    1.07
   1  -6 -13    0.61    0.69
   1   6 -13    0.33    0.65
   1   6 -13    0.67    0.79
   0  -6 -13    0.00    0.67
   0   6 -13    0.13    0.58
   0   6 -13   -0.51    0.73
  -1  -6 -13   -0.16    0.75
  -1   6 -13   -0.10    0.57
  -1   6 -13   -1.27    0.74
  -2  -6 -13    5.86    1.12
  -2   6 -13    7.24    1.08
  -2   6 -13    8.19    1.24
  -3  -6 -13    0.84    0.50
  -3  -6 -13   -0.60    0.82
  -3   6 -13    1.74    0.92
  -3   6 -13    1.19    0.80
  -4  -6 -13    2.44    0.60
   4  -6  13    4.20    0.79
  -4  -6 -13    1.14    0.93
  -4   6 -13    2.31    1.00
  -5  -6 -13    1.90    1.02
  -5  -6 -13    2.87    0.70
   5  -6  13    5.08    0.87
  -5   6 -13    3.70    1.14
   6  -6  13    4.13    1.30
  -6  -6 -13    2.43    1.07
  -6  -6 -13    1.92    0.68
  -6   6 -13    3.72    1.16
  -7  -6 -13    2.27    0.73
  -7  -6 -13    2.66    1.17
  -7   6 -13    2.51    1.25
  -8  -6 -13    1.51    0.75
  -8   6 -13    2.94    1.17
  -9  -6 -13    1.44    0.85
  -9   6 -13    1.26    1.09
  15  -7 -13   -0.05    1.10
  15  -7 -13    1.54    0.73
  15   7 -13    2.16    0.95
  14  -7 -13    1.77    1.12
  14  -7 -13    1.10    0.72
  14   7 -13    2.54    0.97
  13  -7 -13    0.59    1.01
  13  -7 -13    1.26    0.74
  13   7 -13    1.29    0.86
  12  -7 -13   -0.64    0.51
  12  -7 -13   -0.90    0.87
  12   7 -13   -0.58    0.63
  11  -7 -13   -1.08    0.57
  11  -7 -13    0.22    0.86
  11   7 -13    0.87    0.85
  10  -7 -13    1.19    0.84
  10  -7 -13    3.55    0.83
  10   7 -13    3.96    1.02
   9  -7 -13    1.79    0.81
   9  -7 -13    1.23    0.75
   9   7 -13    3.46    0.88
   8  -7 -13    0.08    0.64
   8  -7 -13   -0.55    0.65
   8   7 -13    0.77    0.68
   7  -7 -13    0.24    0.57
   7   7 -13    2.34    0.81
   6  -7 -13   -0.18    0.64
   6   7 -13    0.75    0.71
   5  -7 -13    2.08    0.74
   5   7 -13    1.96    0.73
   4  -7 -13    0.50    0.70
   4   7 -13   -0.38    0.46
   3  -7 -13    0.04    0.67
   3   7 -13    1.10    0.68
   3   7 -13    0.18    0.61
   2  -7 -13    1.29    0.79
   2   7 -13    0.50    0.71
   2   7 -13    0.06    0.66
   1  -7 -13    1.63    0.79
   1   7 -13    1.66    0.77
   1   7 -13    1.46    0.78
   0  -7 -13    1.57    0.76
   0   7 -13    1.08    0.83
   0   7 -13    1.19    0.75
  -1  -7 -13    3.72    0.98
  -1   7 -13    4.19    0.89
  -1   7 -13    5.16    1.06
  -2  -7 -13    0.64    0.87
  -2   7 -13    0.99    0.86
  -2   7 -13    0.30    0.67
  -3  -7 -13    0.67    0.51
  -3  -7 -13   -0.65    0.84
  -3   7 -13   -0.87    0.65
  -3   7 -13    0.97    0.88
   4  -7  13    1.66    0.64
  -4  -7 -13    0.33    0.48
  -4  -7 -13    0.18    0.90
  -4   7 -13    0.16    0.86
   5  -7  13    1.90    0.74
  -5  -7 -13    0.84    0.97
  -5  -7 -13    0.61    0.50
  -5   7 -13    1.47    1.02
   6  -7  13    1.36    0.69
  -6  -7 -13    0.40    0.53
  -6  -7 -13    0.97    1.14
  -6   7 -13    1.35    1.13
  -7  -7 -13    0.33    0.61
  -7   7 -13    1.01    1.00
  -8  -7 -13    0.27    0.70
  -8   7 -13    0.61    1.00
  -9  -7 -13   -0.05    0.72
  -9   7 -13    1.43    1.17
  15  -8 -13    1.13    0.75
  15  -8 -13    0.79    1.21
  14  -8 -13   -0.94    0.87
  14  -8 -13    0.95    0.72
  14   8 -13    1.48    0.88
  13  -8 -13    2.04    0.78
  13  -8 -13    1.33    1.08
  13   8 -13    2.15    0.92
  12  -8 -13    5.18    1.19
  12  -8 -13    5.16    0.98
  12   8 -13    6.26    1.20
  11  -8 -13    5.84    1.15
  11  -8 -13    6.15    1.03
  11   8 -13    7.18    1.25
  10  -8 -13    0.86    0.67
  10  -8 -13    1.47    0.89
  10   8 -13    1.37    0.85
   9  -8 -13    1.59    0.79
   9   8 -13    3.13    0.91
   8  -8 -13    0.47    0.60
   8   8 -13    1.55    0.77
   7  -8 -13   10.61    1.28
   7   8 -13   10.77    1.26
   6  -8 -13    1.05    0.69
   6   8 -13    0.89    0.71
   5  -8 -13   -0.12    0.58
   5   8 -13   -0.13    0.40
   4  -8 -13    1.19    0.76
   4   8 -13   -0.31    0.45
   3  -8 -13    9.61    1.18
   3   8 -13    6.90    0.97
   3   8 -13   10.99    1.23
   2  -8 -13   10.00    1.23
   2   8 -13    7.41    1.08
   2   8 -13   10.23    1.20
   1  -8 -13   -0.07    0.74
   1   8 -13    0.26    0.71
   1   8 -13   -0.83    0.63
   0  -8 -13   -0.17    0.75
   0   8 -13    0.29    0.72
   0   8 -13   -0.40    0.74
  -1  -8 -13    2.88    0.87
  -1   8 -13    2.23    0.98
  -1   8 -13    2.11    0.82
  -2  -8 -13    8.37    1.22
  -2   8 -13   10.81    1.47
  -2   8 -13   13.11    1.50
  -3  -8 -13   11.14    1.38
  -3  -8 -13   13.39    1.12
  -3   8 -13   13.50    1.52
  -3   8 -13   16.52    1.87
   4  -8  13    2.12    0.73
  -4  -8 -13    2.22    0.61
  -4  -8 -13    0.98    1.05
  -4   8 -13    2.25    1.04
  -5  -8 -13   -0.73    1.00
  -5  -8 -13   -0.14    0.45
   5  -8  13    0.08    0.60
  -5   8 -13   -0.20    0.83
   6  -8  13    1.34    0.75
  -6  -8 -13    2.81    0.79
  -6  -8 -13    2.43    1.29
  -6   8 -13    1.72    1.06
   7  -8  13    1.97    0.83
  -7  -8 -13    1.18    0.71
  -7   8 -13    2.68    1.16
  -8  -8 -13   -0.31    0.71
  -8   8 -13    2.29    1.16
  14  -9 -13    1.12    0.80
  14  -9 -13   -1.29    1.08
  13  -9 -13   -1.55    0.99
  13  -9 -13    0.88    0.75
  13   9 -13    0.49    0.83
  12  -9 -13    1.53    0.77
  12  -9 -13    0.69    1.01
  12   9 -13    1.35    0.82
  11  -9 -13    1.52    0.80
  11  -9 -13    3.32    1.07
  11   9 -13    2.81    0.99
  10  -9 -13    1.04    0.75
  10   9 -13    1.66    0.80
   9  -9 -13    1.00    0.76
   9   9 -13    1.84    0.88
   8  -9 -13    0.67    0.73
   8   9 -13    1.69    0.86
   7  -9 -13    0.12    0.71
   7   9 -13    1.35    0.82
   6  -9 -13    0.25    0.64
   6   9 -13    0.41    0.68
   5  -9 -13    0.34    0.67
   5   9 -13    0.09    0.37
   4  -9 -13    1.07    0.73
   4   9 -13    0.80    0.48
   3  -9 -13   -0.46    0.72
   3   9 -13    0.21    0.59
   2  -9 -13    0.15    0.77
   2   9 -13    1.90    0.79
   2   9 -13   -0.10    0.62
   1  -9 -13    1.60    0.85
   1   9 -13    0.91    0.70
   1   9 -13    2.70    0.89
   0  -9 -13    0.70    0.85
   0   9 -13    0.47    0.70
   0   9 -13    1.63    0.81
  -1  -9 -13    1.51    0.84
  -1   9 -13    2.47    0.88
  -1   9 -13    2.88    1.05
  -2  -9 -13    0.27    0.88
  -2   9 -13    1.12    0.91
  -2   9 -13    1.59    1.00
  -3  -9 -13   -0.49    0.85
  -3  -9 -13    1.61    0.56
  -3   9 -13    0.27    0.90
  -3   9 -13    0.67    0.97
   4  -9  13    4.00    0.86
  -4  -9 -13    2.19    0.70
  -4  -9 -13    1.19    0.93
  -4   9 -13    2.81    1.12
  -5  -9 -13   -0.05    1.06
   5  -9  13    0.64    0.71
  -5  -9 -13    0.04    0.56
  -5   9 -13    0.64    1.02
   6  -9  13    0.69    0.78
  -6  -9 -13    0.02    0.63
  -6   9 -13    1.39    1.22
   7  -9  13    0.20    0.72
  -7  -9 -13    0.57    0.63
  -7   9 -13    1.27    1.17
  14 -10 -13   -3.22    0.99
  14 -10 -13    1.54    0.83
  13 -10 -13    1.19    0.84
  13 -10 -13   -1.16    1.06
  13  10 -13    3.03    1.60
  12 -10 -13    1.53    0.83
  12 -10 -13   -2.25    1.40
  12  10 -13    2.35    0.99
  11 -10 -13    2.23    0.89
  11  10 -13    2.39    0.88
  10 -10 -13    1.49    0.78
  10  10 -13    0.56    0.75
   9 -10 -13    0.23    0.74
   9  10 -13    0.76    0.72
   8 -10 -13    0.98    0.73
   8  10 -13    1.57    0.81
   7 -10 -13    2.38    0.82
   7  10 -13    2.31    0.89
   6 -10 -13    3.99    0.96
   5 -10 -13    0.13    0.69
   5  10 -13    0.28    0.36
   4 -10 -13    0.81    0.74
   4  10 -13   -0.16    0.31
   3 -10 -13    4.49    1.06
   3  10 -13    2.44    0.71
   2 -10 -13    5.59    1.05
   2  10 -13    5.00    1.07
   1 -10 -13    1.18    0.91
   1  10 -13    2.95    0.89
   1  10 -13    4.27    1.04
   0 -10 -13    0.27    0.82
   0  10 -13    0.03    0.85
   0  10 -13   -0.19    0.64
  -1 -10 -13    0.66    0.88
  -1  10 -13    2.61    1.04
  -1  10 -13    1.43    0.96
  -2 -10 -13    0.93    0.84
  -2  10 -13    3.62    1.19
  -2  10 -13    1.03    0.92
  -3 -10 -13    3.25    1.02
  -3 -10 -13    3.61    0.73
  -3  10 -13    7.20    1.37
  -3  10 -13    5.71    1.25
  -4 -10 -13    0.67    0.63
  -4 -10 -13    0.08    0.98
   4 -10  13    1.24    0.63
  -4  10 -13    1.91    1.01
   5 -10  13    1.68    0.79
  -5 -10 -13    0.28    0.62
  -5  10 -13    2.54    1.21
  -6 -10 -13    0.73    0.64
   6 -10  13   -0.12    0.66
  -6  10 -13    1.20    1.06
  13 -11 -13    0.75    0.77
  12 -11 -13    1.37    0.79
  11 -11 -13    1.48    0.87
  11  11 -13    2.19    0.93
  10 -11 -13    0.40    0.67
  10  11 -13    1.44    0.91
   9 -11 -13    0.71    0.79
   9  11 -13   -0.71    0.72
   8 -11 -13    1.23    0.76
   8  11 -13    0.79    0.74
   7 -11 -13   -0.19    0.67
   7  11 -13   -0.03    0.26
   6 -11 -13    0.15    0.68
   6  11 -13   -0.04    0.26
   5 -11 -13   -0.14    0.79
   5  11 -13    0.04    0.34
   4 -11 -13   -0.43    0.80
   4  11 -13   -0.04    0.50
   3 -11 -13   -0.24    0.80
   3  11 -13    0.74    0.70
   2 -11 -13    1.06    0.87
   2  11 -13   -0.63    0.53
   1 -11 -13    1.63    0.88
   1  11 -13    0.81    0.80
   0 -11 -13   -0.29    0.88
   0  11 -13    0.56    0.73
  -1 -11 -13   -0.95    0.77
  -1  11 -13    0.98    0.82
  -2 -11 -13   -0.54    0.89
  -2 -11 -13    1.22    0.62
  -2  11 -13   -0.68    0.80
  -3 -11 -13   -1.14    0.93
  -3 -11 -13    0.64    0.63
  -3  11 -13   -0.77    0.77
  -4 -11 -13    0.15    0.61
   4 -11  13    2.70    0.84
  -5 -11 -13    0.37    0.62
   5 -11  13    0.25    0.70
  11 -12 -13    0.45    0.74
  10 -12 -13    0.79    0.88
  10  12 -13    0.85    0.83
   9 -12 -13    0.64    0.86
   9  12 -13    0.05    0.32
   8 -12 -13    2.09    0.88
   8  12 -13    0.31    0.39
   7 -12 -13   -0.40    0.68
   7  12 -13    0.21    0.32
   6 -12 -13    0.23    0.75
   6  12 -13    0.09    0.28
   5 -12 -13   -0.48    0.80
   5  12 -13    0.99    0.62
   4 -12 -13   -0.48    0.68
   4  12 -13   -0.01    0.66
   3 -12 -13    5.75    1.22
   2 -12 -13    4.43    1.15
   2  12 -13    2.95    0.87
   1 -12 -13    2.38    1.05
   1  12 -13    2.20    0.83
   0 -12 -13   -1.54    0.80
   0  12 -13    0.31    0.71
  -1 -12 -13   -1.17    0.78
  -1  12 -13   -0.22    0.74
  -2 -12 -13    0.97    0.54
  -2 -12 -13    0.08    0.98
  -2  12 -13    0.19    0.82
  -3 -12 -13    3.92    0.81
  -3  12 -13    4.18    1.20
  -4 -12 -13    1.39    0.66
  10 -13 -13   -0.08    0.74
   9 -13 -13   -0.29    0.72
   8 -13 -13    0.45    0.90
   7 -13 -13    2.33    0.94
   7  13 -13    0.60    0.40
   6 -13 -13   -1.19    0.62
   6  13 -13    0.00    0.54
   5 -13 -13   -0.06    0.90
   5  13 -13    0.33    0.58
   4 -13 -13    0.29    0.79
   4  13 -13    0.11    0.62
   3 -13 -13   -0.08    0.80
   3  13 -13    0.04    0.61
   2 -13 -13    0.06    0.94
   2  13 -13   -0.19    0.70
   1 -13 -13   -0.76    0.87
   1  13 -13    0.69    0.73
   0 -13 -13   -1.75    0.85
   0  13 -13   -0.16    0.67
  -1 -13 -13   -1.62    0.93
  -1  13 -13    0.48    1.28
  -2 -13 -13    0.84    0.55
   7 -14 -13    1.81    0.98
   6 -14 -13    0.57    0.94
   5 -14 -13    0.31    0.82
   4 -14 -13   -1.23    0.89
   3 -14 -13    1.16    1.01
   2 -14 -13    1.03    1.07
   1 -14 -13    0.84    1.01
   0 -14 -13   -2.06    0.81
  16   0 -14   -0.29    0.87
  15   0 -14    1.73    1.00
  14   0 -14    2.09    1.08
  13   0 -14    3.91    1.08
  12   0 -14    0.99    0.93
  11   0 -14    3.70    0.96
  10   0 -14    6.00    1.10
   9   0 -14    3.97    0.87
   9   0 -14    2.01    0.69
   8   0 -14   -0.81    0.58
   8   0 -14   -0.30    0.58
   7   0 -14    1.33    0.70
   7   0 -14    2.19    0.66
   6   0 -14   30.42    1.52
   6   0 -14   30.65    1.60
   5   0 -14    5.98    0.97
   4   0 -14    0.50    0.75
   4   0 -14    0.22    0.48
   3   0 -14    0.77    0.71
   3   0 -14    0.23    0.46
   2   0 -14    0.52    0.73
   2   0 -14   -0.26    0.40
   1   0 -14    4.53    0.97
   0   0 -14    2.02    0.91
  -1   0 -14   10.03    1.36
  -2   0 -14    0.71    0.89
  -3   0 -14    1.39    0.89
  -4   0 -14    4.83    1.20
  -5   0 -14    3.59    1.12
  -6   0 -14    3.88    1.21
  -7   0 -14    0.71    1.09
  -8   0 -14    2.71    1.13
  -9   0 -14    6.43    1.47
 -10   0 -14    4.04    1.34
  16  -1 -14    1.12    1.00
  16   1 -14    0.90    0.99
  15  -1 -14    0.24    0.88
  15   1 -14    1.13    0.94
  14  -1 -14    0.75    0.89
  14   1 -14    1.17    0.91
  13  -1 -14    0.55    0.94
  13   1 -14    0.53    0.85
  12  -1 -14   -0.40    0.84
  12   1 -14    0.69    0.92
  11  -1 -14    3.15    0.87
  11   1 -14    3.75    1.00
  10  -1 -14    0.48    0.77
  10  -1 -14    0.01    0.56
  10   1 -14   -1.11    0.60
   9  -1 -14    0.57    0.75
   9  -1 -14    0.87    0.60
   9   1 -14    1.09    0.76
   8  -1 -14    2.38    0.72
   8  -1 -14    1.77    0.78
   8   1 -14    1.54    0.67
   8   1 -14    1.04    0.75
   7  -1 -14    0.55    0.62
   7  -1 -14    1.29    0.69
   7   1 -14    0.32    0.65
   7   1 -14   -0.21    0.65
   6  -1 -14    6.00    0.86
   6  -1 -14    7.19    0.88
   6   1 -14    7.65    0.99
   6   1 -14    5.90    0.84
   5  -1 -14    0.78    0.54
   5  -1 -14    0.64    0.69
   5   1 -14    0.01    0.57
   5   1 -14    0.76    0.70
   4  -1 -14    2.11    0.83
   4  -1 -14    0.97    0.50
   4   1 -14    1.47    0.59
   4   1 -14   -0.01    0.73
   3  -1 -14   -0.25    0.39
   3  -1 -14    0.15    0.76
   3   1 -14    0.08    0.68
   3   1 -14    0.33    0.47
   2  -1 -14    0.68    0.77
   2   1 -14    0.77    0.48
   2   1 -14    1.09    0.85
   1  -1 -14    0.28    0.77
   1   1 -14    0.05    0.79
   1   1 -14    0.70    0.49
   0  -1 -14    5.95    1.06
   0   1 -14    3.83    1.01
  -1  -1 -14    4.89    1.07
  -1   1 -14    5.06    1.11
  -2  -1 -14    2.00    0.93
  -2   1 -14    2.27    1.05
  -3  -1 -14   -0.13    0.85
  -3   1 -14    0.45    0.79
  -4  -1 -14    0.28    0.89
  -4   1 -14   -0.77    0.74
  -5  -1 -14   -0.19    1.00
  -5   1 -14   -0.29    0.82
  -6  -1 -14    0.03    1.04
  -6   1 -14    0.67    1.09
  -7  -1 -14    1.03    1.01
  -7   1 -14   -0.70    0.99
  -8  -1 -14    0.38    1.09
  -8   1 -14    0.49    1.06
  -9  -1 -14    1.56    1.08
  -9   1 -14    0.87    1.12
 -10  -1 -14    1.93    1.22
 -10   1 -14    1.24    1.17
  16  -2 -14    1.30    0.98
  16   2 -14    0.22    0.87
  15  -2 -14    1.99    0.99
  15   2 -14    4.02    1.20
  14  -2 -14    0.81    0.91
  14   2 -14    1.63    1.00
  13  -2 -14    1.76    0.98
  13   2 -14    0.44    0.89
  12  -2 -14   -0.87    0.71
  12   2 -14    0.52    0.76
  11  -2 -14    4.33    1.02
  11  -2 -14    3.97    0.79
  11   2 -14    6.02    1.12
  10  -2 -14    7.84    1.11
  10  -2 -14    7.05    0.94
  10   2 -14    6.86    1.05
   9  -2 -14    1.86    0.81
   9  -2 -14    1.58    0.68
   9   2 -14    1.61    0.74
   8  -2 -14    1.95    0.77
   8  -2 -14    0.88    0.66
   8   2 -14    0.83    0.75
   8   2 -14    1.37    0.71
   7  -2 -14    3.33    0.81
   7  -2 -14    2.48    0.72
   7   2 -14    2.51    0.77
   7   2 -14    3.26    0.81
   6  -2 -14   11.83    0.99
   6  -2 -14   11.49    1.09
   6   2 -14   11.16    1.14
   6   2 -14   11.91    1.16
   5  -2 -14    3.50    0.64
   5  -2 -14    3.35    0.78
   5   2 -14    3.18    0.84
   5   2 -14    4.21    0.79
   4  -2 -14   -0.36    0.63
   4  -2 -14    0.15    0.45
   4   2 -14   -0.25    0.50
   4   2 -14   -0.41    0.71
   3  -2 -14    0.47    0.70
   3   2 -14    0.15    0.78
   3   2 -14    0.63    0.55
   2  -2 -14    3.31    0.86
   2   2 -14    4.89    0.98
   2   2 -14    3.06    0.68
   1  -2 -14    8.44    1.20
   1   2 -14    5.87    1.08
   1   2 -14    7.23    0.86
   0  -2 -14   11.76    1.31
   0   2 -14   11.49    0.95
   0   2 -14   12.03    1.34
  -1  -2 -14   16.13    1.46
  -1   2 -14   13.75    1.47
  -2  -2 -14   -0.31    0.81
  -2   2 -14   -0.46    0.76
  -3  -2 -14    8.76    1.40
  -3   2 -14    6.43    1.17
  -4  -2 -14    1.25    1.07
  -4   2 -14    1.27    0.87
  -5  -2 -14    8.86    1.49
  -5   2 -14    7.66    1.34
  -6  -2 -14    0.70    1.11
  -6   2 -14    0.73    1.06
  -7  -2 -14    2.92    1.24
  -7   2 -14    1.75    1.14
  -8  -2 -14    2.50    1.20
  -8   2 -14    2.95    1.21
  -9  -2 -14    3.27    1.20
  -9   2 -14    2.53    1.14
 -10  -2 -14    1.62    1.18
 -10   2 -14    0.60    1.03
  16  -3 -14    1.35    1.11
  16   3 -14    1.30    1.02
  15  -3 -14    0.17    0.88
  15   3 -14    1.06    0.89
  14  -3 -14    1.72    0.95
  14   3 -14    0.10    0.81
  13  -3 -14    0.69    0.84
  13   3 -14    0.75    0.93
  12  -3 -14    1.06    0.90
  12  -3 -14    0.39    0.61
  12   3 -14    0.60    0.74
  11  -3 -14    1.27    0.64
  11  -3 -14    2.04    0.86
  11   3 -14    1.40    0.85
  10  -3 -14    0.09    0.58
  10  -3 -14   -0.24    0.71
  10   3 -14    0.53    0.73
   9  -3 -14    0.14    0.54
   9  -3 -14    1.06    0.78
   9   3 -14    4.09    0.90
   8  -3 -14    1.86    0.77
   8  -3 -14    2.78    0.80
   8   3 -14    1.85    0.81
   7  -3 -14    0.41    0.67
   7  -3 -14    0.24    0.64
   7   3 -14    1.08    0.71
   7   3 -14    0.10    0.67
   6  -3 -14   -0.29    0.57
   6  -3 -14    0.01    0.58
   6   3 -14    0.38    0.65
   6   3 -14   -0.70    0.66
   5  -3 -14    5.56    0.72
   5  -3 -14    4.81    0.88
   5   3 -14    6.79    0.96
   5   3 -14    6.46    1.02
   4  -3 -14    3.37    0.90
   4   3 -14    4.07    0.92
   4   3 -14    3.88    0.81
   3  -3 -14    0.01    0.66
   3   3 -14    0.79    0.82
   3   3 -14    0.09    0.54
   2  -3 -14    0.29    0.71
   2   3 -14    0.64    0.57
   2   3 -14   -0.18    0.82
   1  -3 -14   -0.79    0.76
   1   3 -14    0.32    0.79
   1   3 -14   -0.41    0.51
   0  -3 -14    0.48    0.79
   0   3 -14    0.77    0.89
   0   3 -14   -0.76    0.49
  -1  -3 -14    3.14    1.05
  -1   3 -14    5.05    1.06
  -1   3 -14    4.08    0.78
  -2  -3 -14   -0.07    0.91
  -2   3 -14    0.51    0.88
  -2   3 -14   -0.22    0.63
  -3  -3 -14   -0.46    0.85
  -3  -3 -14    0.25    0.37
  -3   3 -14   -0.08    0.79
  -4  -3 -14    1.61    0.51
  -4  -3 -14    0.63    1.06
  -4   3 -14    1.85    0.96
  -5  -3 -14    1.13    1.10
  -5   3 -14    2.11    1.12
  -6  -3 -14   -0.27    0.97
  -6   3 -14    0.05    0.88
  -7  -3 -14    0.15    0.97
  -7   3 -14    0.74    1.06
  -8  -3 -14   -0.07    0.95
  -8   3 -14    1.65    1.04
  -9  -3 -14    2.07    1.24
  -9   3 -14    1.83    1.19
  16  -4 -14    1.12    1.16
  16   4 -14    1.74    0.95
  15  -4 -14   -0.01    1.02
  15   4 -14   -0.09    0.87
  14  -4 -14    0.24    1.00
  14   4 -14    0.49    0.80
  13  -4 -14    0.44    0.93
  13  -4 -14    0.06    0.65
  13   4 -14    1.00    0.84
  12  -4 -14   -0.42    0.87
  12  -4 -14    0.67    0.65
  12   4 -14    0.83    0.76
  11  -4 -14    2.34    0.79
  11  -4 -14    3.01    0.96
  11   4 -14    3.56    1.04
  10  -4 -14    0.16    0.59
  10  -4 -14    0.14    0.76
  10   4 -14    0.32    0.75
   9  -4 -14    0.89    0.67
   9  -4 -14    0.19    0.70
   9   4 -14    1.04    0.72
   8  -4 -14    2.10    0.76
   8  -4 -14    0.69    0.67
   8   4 -14    1.71    0.81
   7  -4 -14   -0.21    0.63
   7  -4 -14    0.02    0.63
   7   4 -14    0.24    0.68
   6  -4 -14    9.19    0.98
   6  -4 -14    6.43    0.96
   6   4 -14    8.38    1.09
   6   4 -14    8.43    1.04
   5  -4 -14   19.12    1.44
   5   4 -14   18.71    1.36
   5   4 -14   18.15    1.27
   4  -4 -14    3.77    0.88
   4   4 -14    4.40    0.83
   4   4 -14    4.71    0.91
   3  -4 -14   -0.88    0.66
   3   4 -14   -0.30    0.56
   3   4 -14    0.22    0.67
   2  -4 -14    0.37    0.81
   2   4 -14    1.34    0.76
   2   4 -14    2.11    0.72
   1  -4 -14    1.62    0.81
   1   4 -14    2.46    0.73
   1   4 -14    0.91    0.79
   0  -4 -14   14.90    1.51
   0   4 -14   14.21    1.17
   0   4 -14   13.54    1.37
  -1  -4 -14    0.11    0.76
  -1   4 -14    0.83    0.88
  -1   4 -14    0.03    0.56
  -2  -4 -14    3.65    1.09
  -2   4 -14    1.35    0.68
  -2   4 -14    1.51    1.01
  -3  -4 -14    1.37    0.93
  -3  -4 -14    2.63    0.54
  -3   4 -14    2.24    1.04
  -4  -4 -14    4.27    1.25
  -4  -4 -14    3.74    0.65
  -4   4 -14    4.02    1.08
  -5  -4 -14    1.74    0.60
  -5  -4 -14    2.51    1.11
  -5   4 -14    1.42    0.96
  -6  -4 -14    2.94    1.24
  -6   4 -14    1.57    1.00
  -7  -4 -14    0.52    1.07
  -7   4 -14    1.11    1.11
  -8  -4 -14    2.12    1.18
  -8   4 -14    2.94    1.17
  -9  -4 -14    1.84    1.24
  -9   4 -14    3.64    1.28
  16  -5 -14    0.75    1.14
  15  -5 -14   -0.14    1.03
  15   5 -14    0.85    0.94
  14  -5 -14    0.24    0.89
  14  -5 -14    0.47    0.70
  14   5 -14    1.44    0.99
  13  -5 -14   -0.24    0.93
  13  -5 -14    0.51    0.67
  13   5 -14    0.77    0.80
  12  -5 -14    3.59    0.86
  12  -5 -14    3.63    1.09
  12   5 -14    3.71    1.00
  11  -5 -14   -0.26    0.59
  11  -5 -14    1.14    0.83
  11   5 -14    0.87    0.82
  10  -5 -14    7.35    1.08
  10  -5 -14    8.86    1.09
  10   5 -14    7.55    1.17
   9  -5 -14   -0.13    0.64
   9  -5 -14    0.31    0.73
   9   5 -14    1.09    0.76
   8  -5 -14   -0.23    0.70
   8  -5 -14    1.09    0.73
   8   5 -14    1.42    0.74
   7  -5 -14    0.40    0.70
   7  -5 -14    0.24    0.69
   7   5 -14    0.43    0.71
   6  -5 -14    0.12    0.70
   6   5 -14   -0.01    0.57
   5  -5 -14    1.56    0.71
   5   5 -14    1.87    0.73
   5   5 -14    2.02    0.73
   4  -5 -14    0.29    0.73
   4   5 -14   -0.12    0.67
   4   5 -14   -0.22    0.56
   3  -5 -14    6.74    1.10
   3   5 -14    7.00    1.03
   3   5 -14    7.78    1.13
   2  -5 -14    2.46    0.80
   2   5 -14    1.41    0.81
   2   5 -14    2.35    0.74
   1  -5 -14    0.75    0.76
   1   5 -14    0.57    0.66
   1   5 -14    0.40    0.82
   0  -5 -14    1.06    0.88
   0   5 -14    0.07    0.61
   0   5 -14   -0.72    0.69
  -1  -5 -14    0.70    0.79
  -1   5 -14    1.07    0.67
  -1   5 -14    1.18    0.95
  -2  -5 -14    7.45    1.18
  -2   5 -14    6.10    1.20
  -2   5 -14    7.40    1.07
  -3  -5 -14    4.03    1.19
  -3  -5 -14    4.40    0.66
  -3   5 -14    4.94    1.00
  -3   5 -14    4.98    1.18
  -4  -5 -14    1.11    1.01
  -4  -5 -14    0.46    0.46
  -4   5 -14    0.14    0.86
  -5  -5 -14    1.25    1.13
  -5  -5 -14    1.96    0.61
  -5   5 -14    1.74    0.99
  -6  -5 -14    3.42    1.30
  -6  -5 -14    3.80    0.80
  -6   5 -14    2.83    1.19
  -7  -5 -14    1.68    1.13
  -7   5 -14    2.35    1.17
  -8  -5 -14    0.06    1.13
  -8   5 -14    2.03    1.19
  -9   5 -14    1.18    1.14
  15  -6 -14    0.39    1.14
  15   6 -14    0.56    0.86
  14  -6 -14    1.13    0.72
  14  -6 -14    0.92    1.06
  14   6 -14    1.17    0.89
  13  -6 -14   -0.24    0.93
  13  -6 -14    0.58    0.69
  13   6 -14    0.72    0.81
  12  -6 -14    0.39    0.83
  12  -6 -14    0.58    0.69
  12   6 -14    0.36    0.78
  11  -6 -14    9.10    1.24
  11  -6 -14    9.80    1.21
  11   6 -14   10.68    1.41
  10  -6 -14    2.14    0.87
  10  -6 -14    2.27    0.76
  10   6 -14    2.30    0.85
   9  -6 -14    2.22    0.83
   9  -6 -14    0.19    0.62
   9   6 -14    0.99    0.73
   8  -6 -14   -0.06    0.58
   8   6 -14    0.04    0.68
   7  -6 -14    6.04    1.04
   7   6 -14    7.68    1.08
   6  -6 -14   24.19    1.63
   6   6 -14   23.33    1.60
   5  -6 -14    6.71    1.03
   5   6 -14    7.05    1.08
   4  -6 -14    2.02    0.83
   4   6 -14    1.33    0.70
   4   6 -14    1.34    0.71
   3  -6 -14    0.03    0.64
   3   6 -14    0.32    0.64
   3   6 -14   -0.33    0.63
   2  -6 -14    3.67    0.96
   2   6 -14    3.42    0.94
   2   6 -14    3.05    0.85
   1  -6 -14    0.50    0.73
   1   6 -14    0.97    0.86
   1   6 -14    0.90    0.63
   0  -6 -14    2.78    0.89
   0   6 -14    2.48    0.83
   0   6 -14    1.64    0.94
  -1  -6 -14    0.65    0.80
  -1   6 -14   -0.16    0.83
  -1   6 -14    1.29    0.78
  -2  -6 -14    2.76    1.08
  -2   6 -14    1.39    0.73
  -2   6 -14    2.13    0.98
  -3  -6 -14    4.22    1.19
  -3  -6 -14    5.96    0.78
  -3   6 -14    6.81    1.37
  -3   6 -14    7.74    1.21
  -4  -6 -14    1.23    0.57
  -4  -6 -14    0.26    0.93
   4  -6  14    3.05    0.72
  -4   6 -14    1.11    0.96
  -5  -6 -14    0.12    1.11
  -5  -6 -14    0.31    0.50
  -5   6 -14   -0.29    1.00
  -6  -6 -14   -0.09    0.56
  -6  -6 -14   -0.79    1.08
  -6   6 -14    1.25    1.01
  -7  -6 -14    0.11    0.62
  -7  -6 -14    1.33    1.18
  -7   6 -14    0.94    1.08
  -8  -6 -14    0.71    1.01
  -8   6 -14    2.30    1.31
  15  -7 -14   -0.02    1.12
  15  -7 -14    1.31    0.71
  14  -7 -14    1.29    0.78
  14  -7 -14    2.83    1.15
  14   7 -14    2.42    0.99
  13  -7 -14    1.81    1.02
  13  -7 -14    1.97    0.78
  13   7 -14    1.74    0.88
  12  -7 -14    1.70    0.97
  12  -7 -14    2.36    0.86
  12   7 -14    3.93    1.04
  11  -7 -14    2.83    0.88
  11  -7 -14    3.27    1.00
  11   7 -14    3.94    1.09
  10  -7 -14    1.42    0.77
  10  -7 -14    1.24    0.84
  10   7 -14    4.74    1.06
   9  -7 -14    0.26    0.65
   9   7 -14    0.95    0.76
   8  -7 -14   13.93    1.30
   8   7 -14   14.52    1.34
   7  -7 -14    3.92    0.93
   7   7 -14    3.02    0.93
   6  -7 -14    0.64    0.73
   6   7 -14    1.06    0.74
   5  -7 -14    1.69    0.81
   5   7 -14    1.75    0.74
   4  -7 -14    6.32    1.01
   4   7 -14    4.65    0.83
   3  -7 -14    3.78    0.94
   3   7 -14    2.27    0.79
   3   7 -14    5.02    0.97
   2  -7 -14    0.52    0.78
   2   7 -14    1.05    0.79
   2   7 -14   -0.08    0.63
   1  -7 -14   -0.44    0.68
   1   7 -14    0.16    0.62
   1   7 -14    1.15    0.83
   0  -7 -14    2.22    0.95
   0   7 -14    3.34    0.87
   0   7 -14    2.81    1.01
  -1  -7 -14    2.33    0.94
  -1   7 -14    4.28    1.09
  -1   7 -14    4.03    0.93
  -2  -7 -14    4.68    1.20
  -2   7 -14    4.49    1.14
  -2   7 -14    5.01    1.06
  -3  -7 -14    0.63    1.01
  -3  -7 -14    2.05    0.62
  -3   7 -14    3.15    1.09
  -3   7 -14    1.95    0.93
  -4  -7 -14   -0.70    0.97
   4  -7  14    2.09    0.68
  -4  -7 -14    0.76    0.57
  -4   7 -14    1.85    1.03
  -5  -7 -14    1.67    1.08
   5  -7  14    1.87    0.76
  -5  -7 -14    0.87    0.60
  -5   7 -14    1.14    1.01
  -6  -7 -14    0.24    0.62
  -6  -7 -14    0.29    1.11
  -6   7 -14    0.94    1.11
  -7  -7 -14    1.35    2.10
  -7  -7 -14   -0.06    0.65
  -7   7 -14    2.00    1.15
  -8  -7 -14    2.14    0.80
  -8   7 -14    4.21    1.46
  15  -8 -14    0.68    0.72
  15  -8 -14    1.03    1.21
  14  -8 -14   -0.49    0.55
  14  -8 -14    0.07    1.07
  14   8 -14    1.11    0.94
  13  -8 -14    0.70    0.67
  13  -8 -14    0.48    1.03
  13   8 -14    0.37    0.85
  12  -8 -14    0.32    0.74
  12  -8 -14   -0.47    0.89
  12   8 -14    1.51    0.90
  11  -8 -14    1.13    0.93
  11  -8 -14    1.40    0.80
  11   8 -14    1.24    0.82
  10  -8 -14    0.87    0.79
  10   8 -14    5.83    1.08
   9  -8 -14   -0.10    0.60
   9   8 -14   -0.44    0.65
   8  -8 -14    0.26    0.65
   8   8 -14    0.31    0.77
   7  -8 -14    1.05    0.72
   7   8 -14    2.20    0.82
   6  -8 -14    1.96    0.83
   6   8 -14   -0.03    0.68
   5  -8 -14    5.57    1.06
   5   8 -14    2.93    0.69
   4  -8 -14    1.85    0.79
   4   8 -14    0.50    0.62
   3  -8 -14   -0.03    0.77
   3   8 -14    0.98    0.64
   3   8 -14    1.69    1.11
   2  -8 -14    3.85    1.04
   2   8 -14    2.84    0.92
   2   8 -14    4.13    0.97
   1  -8 -14    2.78    1.01
   1   8 -14    2.75    0.91
   1   8 -14    2.94    0.86
   0  -8 -14    1.69    0.87
   0   8 -14    2.35    0.93
   0   8 -14    1.45    0.89
  -1  -8 -14   -1.20    0.81
  -1   8 -14   -0.68    0.67
  -1   8 -14    0.49    0.83
  -2  -8 -14    0.33    0.87
  -2   8 -14    0.15    0.82
  -2   8 -14    1.12    1.02
  -3  -8 -14   -0.12    0.96
  -3  -8 -14    2.19    0.61
  -3   8 -14   -0.34    0.84
  -3   8 -14    1.73    1.11
  -4  -8 -14    0.85    1.10
  -4  -8 -14    1.69    0.63
   4  -8  14    3.13    0.81
  -4   8 -14    1.37    1.01
  -5  -8 -14    0.18    1.16
  -5  -8 -14    0.71    0.60
   5  -8  14    1.05    0.70
  -5   8 -14    0.98    0.96
  -6  -8 -14    0.13    1.17
  -6  -8 -14    0.47    0.63
   6  -8  14    0.32    0.72
  -6   8 -14    1.09    1.05
  -7  -8 -14   -0.22    0.66
  -7   8 -14    0.52    1.06
  14  -9 -14    0.31    1.03
  14  -9 -14    0.38    0.73
  13  -9 -14    2.54    0.92
  13  -9 -14    0.19    0.97
  13   9 -14    1.08    0.81
  12  -9 -14    2.00    0.81
  12   9 -14    2.66    1.02
  11  -9 -14    1.37    0.79
  11   9 -14    0.87    0.78
  10  -9 -14    0.92    0.77
  10   9 -14   -0.11    0.67
   9  -9 -14    2.53    0.87
   9   9 -14    2.45    0.89
   8  -9 -14    0.38    0.70
   8   9 -14    0.71    0.76
   7  -9 -14    0.21    0.67
   7   9 -14    0.33    0.73
   6  -9 -14    0.99    0.79
   6   9 -14    0.18    0.37
   5  -9 -14    0.11    0.69
   5   9 -14    0.10    0.39
   4  -9 -14    3.02    0.99
   4   9 -14    1.41    0.55
   3  -9 -14    4.43    0.99
   3   9 -14    4.75    0.99
   2  -9 -14    3.11    1.03
   2   9 -14    4.72    1.03
   2   9 -14    1.89    0.81
   1  -9 -14   -0.26    0.84
   1   9 -14    2.19    0.94
   1   9 -14    0.70    0.73
   0  -9 -14   -0.12    0.85
   0   9 -14   -0.04    0.73
   0   9 -14    1.55    0.95
  -1  -9 -14    4.80    1.19
  -1   9 -14    6.92    1.24
  -1   9 -14    7.52    1.31
  -2  -9 -14    8.37    1.35
  -2   9 -14   13.54    1.59
  -2   9 -14   11.43    1.63
  -3  -9 -14    0.72    0.59
  -3  -9 -14   -1.04    0.96
  -3   9 -14    2.39    1.14
  -3   9 -14   -0.25    0.91
  -4  -9 -14   -1.69    0.98
  -4  -9 -14    0.42    0.55
   4  -9  14    1.77    0.72
  -4   9 -14    1.17    0.98
  -5  -9 -14    0.36    0.62
  -5  -9 -14    1.30    1.22
   5  -9  14    2.15    0.83
  -5   9 -14    0.32    1.03
  -6  -9 -14    1.73    0.75
   6  -9  14    1.62    0.87
  -6   9 -14    4.90    1.48
  13 -10 -14    0.20    0.74
  12 -10 -14    0.32    0.76
  12  10 -14    0.72    0.77
  11 -10 -14    0.67    0.81
  11  10 -14    1.82    0.94
  10 -10 -14   -0.67    0.71
  10  10 -14    1.62    0.89
   9 -10 -14   -0.59    0.69
   9  10 -14    0.55    0.80
   8 -10 -14    0.40    0.71
   8  10 -14    0.10    0.68
   7 -10 -14    0.13    0.68
   7  10 -14    0.05    0.30
   6 -10 -14    1.01    0.84
   6  10 -14   -0.13    0.32
   5 -10 -14    0.22    0.70
   5  10 -14    0.16    0.33
   4 -10 -14   -0.85    0.65
   4  10 -14    0.25    0.59
   3 -10 -14   -0.77    0.82
   3  10 -14    0.29    0.71
   2 -10 -14   -0.33    0.74
   2  10 -14    1.23    0.82
   1 -10 -14    0.52    0.83
   1  10 -14    1.86    0.85
   1  10 -14    4.37    1.05
   0 -10 -14    3.11    0.98
   0  10 -14    3.42    0.99
   0  10 -14    4.34    1.15
  -1 -10 -14    0.53    0.99
  -1  10 -14   -0.57    0.73
  -1  10 -14   -0.25    0.84
  -2 -10 -14    0.79    1.03
  -2  10 -14    1.23    1.00
  -2  10 -14    3.81    1.20
  -3 -10 -14    0.98    1.04
  -3 -10 -14    0.93    0.59
  -3  10 -14    1.53    0.97
  -3  10 -14    2.89    1.18
   4 -10  14    3.03    0.84
  -4 -10 -14    0.61    1.12
  -4 -10 -14    0.94    0.58
  -4  10 -14    1.72    1.07
   5 -10  14    1.63    0.83
  -5 -10 -14    0.56    0.65
  -5  10 -14    1.21    1.19
  -6  10 -14    2.53    1.16
  12 -11 -14    2.51    0.91
  11 -11 -14   -0.33    0.76
  11  11 -14   -0.04    0.81
  10 -11 -14   -0.24    0.79
  10  11 -14    1.32    0.86
   9 -11 -14    2.67    0.95
   9  11 -14    1.63    0.88
   8 -11 -14    0.13    0.69
   8  11 -14    0.05    0.32
   7 -11 -14    2.09    0.90
   6 -11 -14   -0.16    0.71
   6  11 -14    0.40    0.38
   5 -11 -14   -1.06    0.81
   5  11 -14   -0.05    0.32
   4 -11 -14    8.41    1.36
   4  11 -14    5.25    0.96
   3 -11 -14   15.06    1.64
   3  11 -14    9.40    1.28
   2 -11 -14    8.00    1.28
   2  11 -14    9.03    1.29
   1 -11 -14   -1.01    0.74
   1  11 -14    0.04    0.76
   0 -11 -14    0.38    0.86
   0  11 -14    1.60    0.95
   0  11 -14    0.78    0.83
  -1 -11 -14   -0.28    0.94
  -1  11 -14    0.55    0.81
  -1  11 -14    2.65    1.00
  -2 -11 -14    4.85    0.85
  -2 -11 -14    5.34    1.32
  -2  11 -14   10.57    1.64
  -2  11 -14    5.99    1.35
  -3 -11 -14   -1.52    1.00
  -3 -11 -14    0.67    0.54
  -3  11 -14    0.80    0.95
  -3  11 -14   -0.74    0.79
   4 -11  14    3.13    1.03
  11 -12 -14    0.62    0.89
  10 -12 -14   -0.05    0.83
   9 -12 -14    0.61    0.85
   9  12 -14    0.10    0.33
   8 -12 -14    0.01    0.76
   8  12 -14   -0.01    0.32
   7 -12 -14    0.23    0.78
   7  12 -14   -0.03    0.26
   6 -12 -14   -0.61    0.73
   6  12 -14    0.07    0.28
   5 -12 -14   -0.64    0.85
   5  12 -14    0.55    0.57
   4 -12 -14    0.55    0.84
   4  12 -14    0.49    0.73
   3 -12 -14    1.89    0.97
   3  12 -14    0.62    0.67
   2 -12 -14    0.60    0.97
   2  12 -14   -0.25    0.60
   1 -12 -14   -0.07    0.87
   1  12 -14    0.89    0.81
   0 -12 -14   -0.42    0.82
   0  12 -14   -0.26    0.80
  -1 -12 -14   -1.26    0.98
  -1  12 -14    0.30    0.77
  -2 -12 -14   -2.19    0.96
  -2 -12 -14    1.12    0.63
  -2  12 -14   -0.08    0.85
  -3 -12 -14    1.40    0.69
   9 -13 -14    2.36    0.97
   8 -13 -14    1.99    1.03
   7 -13 -14    2.09    1.01
   6 -13 -14    0.06    0.82
   5 -13 -14    0.06    0.94
   5  13 -14    0.99    0.96
   4 -13 -14    0.58    0.90
   4  13 -14    0.11    0.72
   3 -13 -14    2.43    1.03
   3  13 -14    1.70    0.82
   2 -13 -14   -0.06    0.98
   2  13 -14    0.05    0.97
   1 -13 -14   -0.21    0.97
   0 -13 -14   -1.06    0.98
  -1 -13 -14   -0.14    1.07
   5 -14 -14    0.79    1.08
   4 -14 -14    0.34    1.00
   3 -14 -14   -0.31    0.87
   2 -14 -14   -1.61    0.92
  16   0 -15    0.90    1.08
  15   0 -15   -0.03    0.99
  14   0 -15    0.48    0.98
  13   0 -15   -0.21    0.89
  12   0 -15   -0.61    0.73
  11   0 -15   -0.20    0.71
  10   0 -15    0.95    0.79
   9   0 -15   -0.19    0.60
   9   0 -15   -0.41    0.56
   8   0 -15   -0.19    0.64
   8   0 -15   -0.02    0.66
   7   0 -15   -0.52    0.66
   7   0 -15   -0.37    0.61
   6   0 -15   -0.24    0.55
   6   0 -15   -0.08    0.73
   5   0 -15   -0.14    0.52
   5   0 -15   -0.68    0.71
   4   0 -15   -0.39    0.48
   4   0 -15   -0.30    0.77
   3   0 -15    0.08    0.80
   3   0 -15   -0.11    0.46
   2   0 -15    0.91    0.81
   1   0 -15   -0.03    0.82
   0   0 -15    1.11    1.02
  -1   0 -15   -0.86    0.79
  -2   0 -15    0.28    0.88
  -3   0 -15    0.07    0.96
  -4   0 -15    0.31    0.91
  -5   0 -15    0.75    1.10
  -6   0 -15    0.93    1.09
  -7   0 -15   -0.17    0.99
  -8   0 -15    0.72    1.13
  -9   0 -15    0.94    1.18
  16  -1 -15    2.21    1.17
  16   1 -15    3.29    1.22
  15  -1 -15    1.01    1.04
  15   1 -15    2.53    1.06
  14  -1 -15    1.15    0.96
  14   1 -15    2.06    1.08
  13  -1 -15    0.45    0.88
  13   1 -15    1.66    0.93
  12  -1 -15    6.16    1.18
  12   1 -15    6.46    1.22
  11  -1 -15    7.70    1.15
  11   1 -15    6.57    1.08
  10  -1 -15   -0.62    0.55
  10  -1 -15    0.68    0.79
  10   1 -15    0.15    0.74
   9  -1 -15   -0.48    0.58
   9  -1 -15    0.23    0.69
   9   1 -15    0.71    0.65
   8  -1 -15    2.20    0.69
   8  -1 -15    2.29    0.76
   8   1 -15    1.75    0.79
   8   1 -15    2.75    0.86
   7  -1 -15   14.31    1.25
   7  -1 -15   12.80    1.11
   7   1 -15   14.22    1.14
   7   1 -15   13.57    1.24
   6  -1 -15    4.64    0.86
   6  -1 -15    5.09    0.80
   6   1 -15    4.81    0.93
   6   1 -15    4.47    0.85
   5  -1 -15    2.15    0.61
   5  -1 -15    1.56    0.86
   5   1 -15    1.00    0.57
   5   1 -15    1.07    0.78
   4  -1 -15   -0.18    0.68
   4  -1 -15    0.02    0.47
   4   1 -15    0.60    0.73
   4   1 -15    0.18    0.54
   3  -1 -15    1.36    0.87
   3   1 -15    0.71    0.85
   3   1 -15    1.86    0.60
   2  -1 -15    1.36    0.92
   2   1 -15    1.27    0.54
   2   1 -15    0.50    0.93
   1  -1 -15    6.63    1.12
   1   1 -15    7.15    1.16
   0  -1 -15   24.64    1.73
   0   1 -15   25.79    1.78
  -1  -1 -15    2.64    1.01
  -1   1 -15    1.83    0.96
  -2  -1 -15    2.32    1.10
  -2   1 -15    4.66    1.19
  -3  -1 -15    3.65    1.10
  -3   1 -15    3.55    1.13
  -4  -1 -15    3.46    1.16
  -4   1 -15    5.19    1.25
  -5  -1 -15   -0.06    1.05
  -5   1 -15    0.42    1.04
  -6  -1 -15    0.97    1.01
  -6   1 -15    1.18    1.14
  -7  -1 -15    3.63    1.34
  -7   1 -15    3.80    1.33
  -8  -1 -15    1.81    1.13
  -8   1 -15    4.06    1.35
  -9  -1 -15    3.15    1.29
  -9   1 -15   -0.24    1.11
  16  -2 -15    1.13    0.99
  16   2 -15    1.75    1.10
  15  -2 -15    1.40    0.95
  15   2 -15    0.57    0.89
  14  -2 -15    0.26    0.87
  14   2 -15    0.63    0.85
  13  -2 -15    0.67    0.92
  13   2 -15    1.73    0.99
  12  -2 -15   -0.45    0.76
  12   2 -15    0.46    0.88
  11  -2 -15    0.14    0.62
  11  -2 -15    0.51    0.85
  11   2 -15    0.20    0.81
  10  -2 -15    1.24    0.71
  10  -2 -15    1.87    0.84
  10   2 -15    2.09    0.88
   9  -2 -15    0.59    0.65
   9  -2 -15    1.24    0.75
   9   2 -15    1.50    0.80
   8  -2 -15    0.24    0.67
   8  -2 -15    1.66    0.73
   8   2 -15    0.39    0.70
   8   2 -15   -0.97    1.01
   7  -2 -15    0.83    0.63
   7  -2 -15    0.29    0.63
   7   2 -15    0.34    0.72
   7   2 -15    0.95    0.63
   6  -2 -15    2.23    0.64
   6  -2 -15    2.24    0.83
   6   2 -15    2.61    0.77
   6   2 -15    2.62    0.82
   5  -2 -15    0.02    0.71
   5  -2 -15    0.41    0.67
   5   2 -15    0.25    0.78
   5   2 -15   -0.53    0.56
   4  -2 -15    1.18    0.83
   4   2 -15    0.20    0.83
   4   2 -15    0.03    0.54
   3  -2 -15   -0.69    0.67
   3   2 -15    0.56    0.90
   3   2 -15    0.39    0.53
   2  -2 -15    0.37    0.77
   2   2 -15    0.26    0.50
   2   2 -15   -0.03    0.80
   1  -2 -15    2.90    0.95
   1   2 -15    2.75    0.66
   1   2 -15    2.54    0.99
   0  -2 -15    3.15    0.99
   0   2 -15    3.45    1.02
  -1  -2 -15    1.72    0.95
  -1   2 -15    0.49    0.96
  -2  -2 -15    0.30    0.91
  -2   2 -15   -0.71    0.85
  -3  -2 -15   -0.38    0.87
  -3   2 -15    0.19    0.97
  -4  -2 -15    1.87    1.16
  -4   2 -15    2.13    0.99
  -5  -2 -15    3.22    1.27
  -5   2 -15    1.32    1.01
  -6  -2 -15    1.39    1.20
  -6   2 -15    0.57    1.07
  -7  -2 -15    0.22    0.97
  -7   2 -15    2.34    1.18
  -8  -2 -15    0.87    1.15
  -8   2 -15   -0.44    0.98
  -9  -2 -15    2.01    1.31
  -9   2 -15    1.14    1.07
  16  -3 -15    1.70    1.14
  16   3 -15    1.82    1.06
  15  -3 -15    0.33    0.89
  15   3 -15   -0.02    0.95
  14  -3 -15    1.71    1.00
  14   3 -15    1.49    0.95
  13  -3 -15    3.05    1.06
  13   3 -15    1.47    0.88
  12  -3 -15    4.36    0.92
  12  -3 -15    6.15    1.17
  12   3 -15    6.32    1.14
  11  -3 -15   -0.58    0.69
  11  -3 -15    0.08    0.62
  11   3 -15    1.64    0.90
  10  -3 -15    0.14    0.60
  10  -3 -15    0.92    0.78
  10   3 -15    1.60    0.83
   9  -3 -15    0.40    0.59
   9  -3 -15    0.69    0.73
   9   3 -15   -0.03    0.72
   8  -3 -15    0.08    0.66
   8  -3 -15    0.62    0.68
   8   3 -15    0.83    0.65
   7  -3 -15    5.33    0.99
   7  -3 -15    6.05    0.87
   7   3 -15    6.68    0.96
   7   3 -15    5.66    0.97
   6  -3 -15    6.61    1.04
   6   3 -15    7.17    1.06
   6   3 -15    7.43    0.96
   5  -3 -15    2.68    0.81
   5   3 -15    3.68    0.95
   5   3 -15    3.72    0.76
   4  -3 -15    1.01    0.82
   4   3 -15    0.14    0.59
   4   3 -15   -0.08    0.77
   3  -3 -15    3.67    0.99
   3   3 -15    5.04    1.09
   3   3 -15    2.54    0.69
   2  -3 -15    4.76    1.06
   2   3 -15    5.23    0.84
   2   3 -15    4.45    1.00
   1  -3 -15    4.83    1.11
   1   3 -15    7.06    0.91
   1   3 -15    7.75    1.30
   0  -3 -15    0.01    0.91
   0   3 -15   -0.02    0.53
   0   3 -15   -1.23    0.72
  -1  -3 -15    6.56    1.24
  -1   3 -15    6.91    1.28
  -2  -3 -15   -0.03    0.94
  -2   3 -15    0.94    0.87
  -3  -3 -15    7.75    1.35
  -3  -3 -15    6.48    0.82
  -3   3 -15    4.33    1.21
  -4  -3 -15    1.77    1.06
  -4   3 -15    2.64    1.05
  -5  -3 -15   -0.84    0.94
  -5   3 -15    0.96    1.05
  -6  -3 -15    1.45    1.12
  -6   3 -15    0.32    0.94
  -7  -3 -15    2.98    1.27
  -7   3 -15    0.40    1.09
  -8  -3 -15    3.52    1.27
  -8   3 -15    4.03    1.25
  -9  -3 -15    0.84    1.21
  -9   3 -15    1.51    1.29
  16  -4 -15   -0.19    0.93
  15  -4 -15    1.09    1.05
  15   4 -15    2.15    0.98
  14  -4 -15    0.72    0.98
  14   4 -15    0.37    0.87
  13  -4 -15    1.84    0.88
  13  -4 -15    1.87    0.81
  13   4 -15    1.37    0.85
  12  -4 -15    0.88    0.72
  12  -4 -15   -0.28    0.85
  12   4 -15    1.22    0.86
  11  -4 -15    4.35    0.94
  11  -4 -15    3.38    1.00
  11   4 -15    5.10    1.16
  10  -4 -15    4.03    0.92
  10  -4 -15    3.64    0.87
  10   4 -15    5.57    1.10
   9  -4 -15    1.96    0.81
   9  -4 -15    2.06    0.79
   9   4 -15    1.76    0.77
   8  -4 -15    3.97    0.91
   8  -4 -15    2.84    0.80
   8   4 -15    4.37    0.96
   7  -4 -15   -0.52    0.66
   7   4 -15   -0.11    0.63
   6  -4 -15   -0.66    0.66
   6   4 -15   -0.17    0.71
   6   4 -15    0.23    0.64
   5  -4 -15    1.30    0.77
   5   4 -15    1.78    0.69
   5   4 -15    3.67    0.88
   4  -4 -15    3.76    0.98
   4   4 -15    5.10    1.03
   4   4 -15    3.57    0.82
   3  -4 -15    0.33    0.72
   3   4 -15    0.16    0.53
   3   4 -15    0.84    0.86
   2  -4 -15    0.45    0.76
   2   4 -15   -0.24    0.57
   2   4 -15    0.61    0.83
   1  -4 -15   -0.05    0.77
   1   4 -15    0.76    0.61
   1   4 -15   -0.44    0.75
   0  -4 -15    1.78    0.96
   0   4 -15    1.35    0.85
   0   4 -15    2.97    0.77
  -1  -4 -15   13.72    1.54
  -1   4 -15   12.24    1.21
  -1   4 -15   13.23    1.60
  -2  -4 -15   -0.42    0.89
  -2   4 -15    1.13    1.02
  -3  -4 -15    4.45    0.67
  -3  -4 -15    4.69    1.18
  -3   4 -15    3.10    1.20
  -4  -4 -15    4.00    0.67
  -4  -4 -15    4.45    1.36
  -4   4 -15    4.71    1.27
  -5  -4 -15    5.65    1.45
  -5   4 -15    4.49    1.19
  -6  -4 -15    1.65    1.23
  -6   4 -15    0.89    1.01
  -7  -4 -15   -0.32    1.10
  -7   4 -15    1.47    1.13
  -8  -4 -15    1.04    1.12
  -8   4 -15    1.82    1.23
  16  -5 -15    1.33    1.12
  15  -5 -15    1.04    1.11
  15   5 -15    1.11    1.01
  14  -5 -15    0.22    0.98
  14   5 -15    1.65    1.00
  13  -5 -15    0.29    0.67
  13  -5 -15   -0.17    0.94
  13   5 -15    1.60    1.02
  12  -5 -15    5.13    1.02
  12  -5 -15    6.11    1.20
  12   5 -15    6.25    1.23
  11  -5 -15    2.28    0.96
  11  -5 -15    1.28    0.76
  11   5 -15    1.28    0.84
  10  -5 -15   -0.39    0.67
  10  -5 -15    0.36    0.75
  10   5 -15    0.33    0.83
   9  -5 -15    0.15    0.63
   9  -5 -15    1.19    0.76
   9   5 -15    0.33    0.66
   8  -5 -15    0.03    0.71
   8   5 -15    0.40    0.73
   7  -5 -15    0.98    0.68
   7   5 -15    0.90    0.66
   6  -5 -15   -0.16    0.63
   6   5 -15    1.34    0.65
   5  -5 -15    4.23    0.93
   5   5 -15    4.60    0.93
   5   5 -15    5.61    0.93
   4  -5 -15   10.11    1.25
   4   5 -15   12.48    1.22
   4   5 -15   12.72    1.31
   3  -5 -15    4.57    1.03
   3   5 -15    4.35    0.88
   3   5 -15    5.63    1.07
   2  -5 -15    1.99    0.93
   2   5 -15    2.47    0.93
   2   5 -15    2.05    0.77
   1  -5 -15    5.30    1.14
   1   5 -15    8.13    1.09
   1   5 -15    5.44    1.09
   0  -5 -15   -0.09    0.87
   0   5 -15    2.22    0.93
   0   5 -15   -1.22    0.55
  -1  -5 -15    1.83    0.93
  -1   5 -15    0.67    0.69
  -1   5 -15    1.16    0.93
  -2  -5 -15   13.73    1.64
  -2   5 -15   11.71    1.27
  -2   5 -15   13.50    1.60
  -3  -5 -15    3.84    0.63
  -3  -5 -15    4.65    1.26
  -3   5 -15    4.94    1.28
  -4  -5 -15    2.12    0.59
  -4  -5 -15    1.32    1.06
  -4   5 -15    2.64    1.21
  -5  -5 -15    2.37    0.67
  -5  -5 -15    2.98    1.32
  -5   5 -15    1.63    1.19
  -6  -5 -15    1.13    1.18
  -6   5 -15    2.90    1.21
  -7  -5 -15    3.03    1.23
  -7   5 -15    4.13    1.34
  -8  -5 -15    0.56    1.21
  -8   5 -15    1.85    1.24
  15  -6 -15    1.32    1.14
  15   6 -15    0.10    0.95
  14  -6 -15    0.21    0.71
  14  -6 -15    0.13    0.92
  14   6 -15    1.57    0.90
  13  -6 -15    2.24    0.96
  13  -6 -15    2.78    0.89
  13   6 -15    2.63    0.98
  12  -6 -15    0.10    0.72
  12  -6 -15    0.61    0.90
  12   6 -15   -0.54    0.70
  11  -6 -15    0.83    0.89
  11  -6 -15    0.11    0.70
  11   6 -15    0.80    0.79
  10  -6 -15    1.00    0.81
  10  -6 -15    0.86    0.67
  10   6 -15    0.77    0.74
   9  -6 -15   12.27    1.38
   9   6 -15   12.10    1.40
   8  -6 -15    2.34    0.81
   8   6 -15    4.05    0.93
   7  -6 -15    0.32    0.78
   7   6 -15    2.51    0.85
   6  -6 -15    0.17    0.67
   6   6 -15    0.06    0.63
   5  -6 -15    4.65    0.94
   5   6 -15    5.20    1.00
   4  -6 -15   21.51    1.65
   4   6 -15   23.74    1.53
   4   6 -15   25.85    1.62
   3  -6 -15    4.47    0.97
   3   6 -15    4.39    0.96
   3   6 -15    4.86    0.95
   2  -6 -15    0.68    0.77
   2   6 -15    1.28    0.75
   2   6 -15    1.50    0.86
   1  -6 -15   -0.34    0.73
   1   6 -15   -0.93    0.51
   1   6 -15    0.01    0.81
   0  -6 -15    4.27    1.15
   0   6 -15    5.94    1.08
   0   6 -15    4.29    1.08
  -1  -6 -15    0.88    1.00
  -1   6 -15    1.28    0.92
  -1   6 -15    0.62    0.68
  -2  -6 -15    0.61    0.90
  -2   6 -15    1.94    1.11
  -2   6 -15    1.60    0.87
  -3  -6 -15   -0.06    0.40
  -3  -6 -15   -1.51    0.99
  -3   6 -15    0.65    0.95
  -3   6 -15    0.36    0.76
  -4  -6 -15    1.16    1.07
  -4  -6 -15    0.84    0.54
  -4   6 -15    1.01    1.12
  -5  -6 -15    2.01    0.67
  -5  -6 -15   -0.15    1.17
  -5   6 -15    2.04    1.08
  -6  -6 -15    0.55    1.08
  -6  -6 -15    0.46    0.59
  -6   6 -15    1.45    1.16
  -7  -6 -15    0.45    1.23
  -7   6 -15    1.56    1.25
  -8   6 -15    0.62    1.05
  15  -7 -15   -0.64    0.72
  15  -7 -15   -0.62    0.96
  14  -7 -15    1.11    1.11
  14  -7 -15    0.62    0.78
  14   7 -15    1.70    0.96
  13  -7 -15    1.55    0.98
  13  -7 -15    2.29    0.91
  13   7 -15    2.96    1.06
  12  -7 -15    0.75    0.93
  12  -7 -15    1.80    0.79
  12   7 -15    2.93    0.93
  11  -7 -15   -0.68    0.98
  11  -7 -15    0.04    0.64
  11   7 -15   -0.24    0.80
  10  -7 -15   -0.30    0.63
  10   7 -15    0.72    0.82
   9  -7 -15   -0.17    0.65
   9   7 -15    1.00    0.73
   8  -7 -15    3.16    0.88
   8   7 -15    3.37    0.96
   7  -7 -15    3.60    0.92
   7   7 -15    3.14    0.90
   6  -7 -15    4.79    0.97
   6   7 -15    5.92    1.05
   5  -7 -15    1.33    0.77
   5   7 -15   -0.24    0.53
   4  -7 -15   -0.42    0.67
   4   7 -15    0.29    0.61
   3  -7 -15    0.87    0.84
   3   7 -15    0.88    0.75
   3   7 -15    0.62    0.71
   2  -7 -15   -0.39    0.82
   2   7 -15    0.08    0.77
   2   7 -15   -0.04    0.66
   1  -7 -15    0.93    0.91
   1   7 -15    0.52    0.88
   1   7 -15    0.31    0.75
   0  -7 -15   -1.17    0.84
   0   7 -15    0.70    0.94
   0   7 -15   -0.91    0.69
  -1  -7 -15   -0.39    0.83
  -1   7 -15    0.77    0.90
  -1   7 -15    1.88    0.90
  -2  -7 -15    1.36    1.08
  -2   7 -15   -0.01    0.80
  -2   7 -15    1.01    0.96
  -3  -7 -15    1.04    1.09
  -3  -7 -15    1.55    0.60
  -3   7 -15    0.38    0.86
  -3   7 -15    0.97    0.97
  -4  -7 -15    1.14    0.61
   4  -7  15    1.50    0.63
  -4  -7 -15    1.48    1.18
  -4   7 -15    1.01    1.11
  -5  -7 -15   -1.37    1.02
  -5  -7 -15    1.09    0.65
  -5   7 -15   -0.18    1.07
  -6  -7 -15   -1.00    1.16
  -6  -7 -15   -0.35    0.55
  -6   7 -15    0.52    1.04
  -7  -7 -15    0.54    0.68
  -7   7 -15    1.48    1.27
  14  -8 -15    0.36    1.06
  14  -8 -15    0.76    0.80
  13  -8 -15    0.87    0.81
  13  -8 -15    1.77    1.07
  13   8 -15    2.77    0.99
  12  -8 -15    2.00    0.84
  12   8 -15    3.19    1.08
  11  -8 -15   -0.68    0.69
  11   8 -15    1.02    0.77
  10  -8 -15    3.84    0.96
  10   8 -15    5.29    1.12
   9  -8 -15    3.33    0.99
   9   8 -15    5.33    1.09
   8  -8 -15    4.28    1.05
   8   8 -15    7.68    1.26
   7  -8 -15    1.06    0.84
   7   8 -15    1.35    0.79
   6  -8 -15   -0.35    0.67
   6   8 -15    1.12    0.84
   5  -8 -15    3.25    0.94
   5   8 -15    2.45    0.68
   4  -8 -15    5.78    1.07
   4   8 -15    4.20    0.85
   3  -8 -15    1.99    0.97
   3   8 -15    1.72    0.80
   2  -8 -15    0.89    0.83
   2   8 -15    2.14    0.87
   2   8 -15    1.78    0.89
   1  -8 -15    1.98    0.93
   1   8 -15    0.89    0.83
   1   8 -15    2.87    1.03
   0  -8 -15    0.99    0.90
   0   8 -15    1.12    0.80
   0   8 -15    1.67    0.96
  -1  -8 -15    2.81    1.14
  -1   8 -15    5.91    1.23
  -1   8 -15    3.10    1.04
  -2  -8 -15    0.41    0.96
  -2   8 -15    1.87    1.08
  -2   8 -15    0.17    0.73
  -3  -8 -15   -0.92    1.05
  -3  -8 -15    1.03    0.53
  -3   8 -15    0.09    0.93
  -3   8 -15    0.24    1.06
  -4  -8 -15   -1.11    0.94
  -4  -8 -15    1.16    0.60
   4  -8  15    2.31    0.74
  -4   8 -15    0.11    0.93
   5  -8  15    2.28    0.98
  -5  -8 -15    0.53    1.24
  -5  -8 -15    2.00    0.70
  -5   8 -15    0.43    1.03
  -6  -8 -15    0.73    0.70
  -6  -8 -15    0.37    1.32
  -6   8 -15    3.46    1.34
  14  -9 -15    0.99    0.86
  13  -9 -15    0.04    0.75
  12  -9 -15    0.31    0.72
  12   9 -15    1.60    0.92
  11  -9 -15    0.39    0.71
  11   9 -15    0.47    0.81
  10  -9 -15    0.85    0.76
  10   9 -15    0.29    0.78
   9  -9 -15    0.49    0.78
   9   9 -15   -0.39    0.66
   8  -9 -15   -0.04    0.70
   8   9 -15    0.12    0.69
   7  -9 -15    1.24    0.80
   7   9 -15    2.12    0.84
   6  -9 -15    1.85    0.91
   6   9 -15    0.73    0.50
   5  -9 -15    0.60    0.85
   5   9 -15    0.30    0.47
   4  -9 -15   -0.75    0.79
   4   9 -15    0.28    0.49
   3  -9 -15    0.34    0.86
   3   9 -15    0.21    0.63
   2  -9 -15    2.91    1.10
   2   9 -15    5.86    1.28
   2   9 -15    3.65    1.03
   1  -9 -15   -0.51    0.76
   1   9 -15    0.68    0.88
   1   9 -15    0.02    0.78
   0  -9 -15    0.25    0.84
   0   9 -15    0.67    0.90
   0   9 -15   -0.46    0.76
  -1  -9 -15    0.47    1.03
  -1   9 -15   -0.24    0.86
  -1   9 -15   -1.02    0.81
  -2  -9 -15   -0.66    0.95
  -2   9 -15    0.32    0.90
  -2   9 -15   -0.51    0.86
  -3  -9 -15   -1.73    1.00
  -3  -9 -15    1.09    0.58
  -3   9 -15   -1.66    0.84
  -3   9 -15    0.66    1.09
  -4  -9 -15   -0.85    1.03
  -4  -9 -15    0.44    0.55
   4  -9  15    2.48    0.77
  -4   9 -15    0.96    0.99
  -5  -9 -15   -1.21    1.17
  -5  -9 -15    0.45    0.66
   5  -9  15    1.12    0.74
  -5   9 -15    1.83    1.18
  -6   9 -15    1.13    1.22
  13 -10 -15    1.01    0.92
  12 -10 -15    0.26    0.76
  11 -10 -15   -0.90    0.75
  11  10 -15   -0.22    0.74
  10 -10 -15    0.72    0.88
  10  10 -15    1.94    0.87
   9 -10 -15    0.61    0.75
   9  10 -15    1.53    0.84
   8 -10 -15    1.35    0.92
   8  10 -15    1.79    0.86
   7 -10 -15    0.29    0.82
   7  10 -15   -0.11    0.27
   6 -10 -15   -0.85    0.74
   6  10 -15   -0.28    0.26
   5 -10 -15    3.23    1.06
   5  10 -15    1.82    0.62
   4 -10 -15    6.01    1.17
   4  10 -15    5.39    1.06
   3 -10 -15    0.64    0.95
   3  10 -15    1.94    0.88
   2 -10 -15   -0.43    0.78
   2  10 -15    0.41    0.71
   1 -10 -15    1.02    1.00
   1  10 -15    0.24    0.81
   1  10 -15    1.10    0.90
   0 -10 -15    2.50    1.13
   0  10 -15    3.16    1.02
   0  10 -15    2.87    0.98
  -1 -10 -15    3.60    1.21
  -1  10 -15    9.60    1.55
  -1  10 -15    7.11    1.33
  -2 -10 -15    0.47    0.50
  -2 -10 -15   -0.04    0.95
  -2  10 -15   -0.54    0.89
  -2  10 -15    0.28    1.03
  -3 -10 -15    1.37    0.63
  -3 -10 -15   -2.11    1.00
  -3  10 -15    1.06    1.11
  -3  10 -15   -0.27    0.95
  -4 -10 -15    3.12    0.82
  -4 -10 -15    0.08    1.20
   4 -10  15    5.21    1.01
  -4  10 -15    2.94    1.20
  -5  10 -15    2.51    1.33
  12 -11 -15    0.32    0.86
  11 -11 -15    1.03    0.92
  10 -11 -15    0.22    0.85
  10  11 -15    0.60    0.86
   9 -11 -15    1.54    0.93
   9  11 -15    0.15    0.82
   8 -11 -15    0.51    0.82
   8  11 -15    0.01    0.28
   7 -11 -15   -0.83    0.71
   7  11 -15    0.40    0.38
   6 -11 -15    0.84    0.88
   6  11 -15    0.33    0.36
   5 -11 -15   -0.06    0.87
   5  11 -15    0.14    0.54
   4 -11 -15   -0.65    0.89
   4  11 -15    0.27    0.61
   3 -11 -15   -0.61    0.90
   3  11 -15   -0.02    0.71
   2 -11 -15   -0.16    0.85
   2  11 -15    1.00    0.77
   1 -11 -15   -0.39    0.96
   1  11 -15    0.03    0.83
   0 -11 -15    0.15    1.05
   0  11 -15    1.47    0.95
   0  11 -15   -0.32    0.74
  -1 -11 -15    0.98    1.10
  -1  11 -15   -0.34    0.77
  -1  11 -15    2.06    1.10
  -2 -11 -15    0.46    0.58
  -2 -11 -15   -1.08    1.09
  -2  11 -15    1.25    1.01
  -2  11 -15    0.25    0.98
  -3 -11 -15    1.66    0.66
  -3 -11 -15   -0.09    1.18
  -3  11 -15    1.69    1.11
  -3  11 -15   -0.09    0.94
  10 -12 -15   -0.32    0.86
   9 -12 -15   -0.89    0.83
   8 -12 -15    1.53    0.92
   7 -12 -15   -1.13    0.81
   7  12 -15    0.04    0.33
   6 -12 -15   -0.37    0.80
   6  12 -15   -0.10    0.25
   5 -12 -15    0.62    0.90
   5  12 -15    0.40    0.57
   4 -12 -15    2.80    1.07
   4  12 -15    2.14    0.87
   3 -12 -15    1.13    0.96
   3  12 -15    0.82    0.70
   2 -12 -15    1.48    1.01
   2  12 -15    1.23    0.78
   1 -12 -15    0.08    1.03
   1  12 -15    0.92    0.83
   0 -12 -15    0.26    1.07
   0  12 -15    0.65    0.94
  -1 -12 -15    2.11    1.24
  -2 -12 -15    2.33    0.71
  -2 -12 -15   -0.69    1.15
   8 -13 -15    0.70    0.90
   7 -13 -15   -0.52    0.81
   6 -13 -15   -0.22    0.86
   5 -13 -15    0.48    0.94
   4 -13 -15    0.18    1.06
   3 -13 -15   -0.77    0.98
   2 -13 -15   -0.75    1.00
   1 -13 -15   -1.33    1.03
   0 -13 -15   -1.41    0.96
  16   0 -16    0.71    0.97
  15   0 -16    1.35    1.10
  14   0 -16    2.19    1.08
  13   0 -16    1.46    1.01
  12   0 -16    1.35    0.95
  11   0 -16    1.86    0.93
  10   0 -16    0.86    0.78
   9   0 -16    2.83    0.83
   9   0 -16    0.68    0.75
   8   0 -16    5.16    0.88
   8   0 -16    4.48    0.94
   7   0 -16    2.41    0.73
   7   0 -16    1.56    0.74
   6   0 -16    0.23    0.55
   6   0 -16   -0.26    0.72
   5   0 -16    0.12    0.71
   5   0 -16   -0.19    0.47
   4   0 -16    0.48    0.77
   3   0 -16    0.28    0.79
   2   0 -16    1.00    0.94
   1   0 -16   19.82    1.76
   0   0 -16    7.20    1.26
  -1   0 -16    0.64    0.95
  -2   0 -16    2.06    1.15
  -3   0 -16   -0.44    1.01
  -4   0 -16    0.51    0.96
  -5   0 -16    0.85    1.00
  -6   0 -16    1.86    1.24
  -7   0 -16    3.61    1.36
  -8   0 -16    3.92    1.43
  16  -1 -16    0.39    1.04
  16   1 -16    1.41    1.01
  15  -1 -16    0.82    1.04
  15   1 -16    1.10    1.07
  14  -1 -16   -0.35    0.91
  14   1 -16    0.19    0.97
  13  -1 -16    0.79    0.98
  13   1 -16    1.09    0.89
  12  -1 -16    1.18    0.85
  12   1 -16    0.68    0.78
  11  -1 -16    0.89    0.78
  11   1 -16    1.63    0.87
  10  -1 -16    0.10    0.73
  10  -1 -16   -0.41    0.65
  10   1 -16   -0.35    0.72
   9  -1 -16    4.89    0.94
   9  -1 -16    2.15    0.81
   9   1 -16    3.83    0.88
   8  -1 -16    1.58    0.69
   8  -1 -16    0.85    0.73
   8   1 -16    1.73    0.76
   8   1 -16    0.34    0.74
   7  -1 -16    0.99    0.61
   7  -1 -16    0.16    0.70
   7   1 -16    0.61    0.63
   7   1 -16    1.03    0.77
   6  -1 -16    1.63    0.82
   6  -1 -16    0.99    0.59
   6   1 -16    0.88    0.61
   6   1 -16    0.51    0.79
   5  -1 -16    0.34    0.73
   5   1 -16    0.01    0.83
   5   1 -16   -0.47    0.50
   4  -1 -16    0.00    0.73
   4   1 -16    0.77    0.54
   4   1 -16    0.32    0.88
   3  -1 -16    0.41    0.87
   3   1 -16    0.55    0.59
   3   1 -16    0.35    0.90
   2  -1 -16    8.28    1.20
   2   1 -16   11.05    1.45
   1  -1 -16    0.21    0.93
   1   1 -16   -0.03    0.86
   0  -1 -16   -0.89    0.81
   0   1 -16   -1.29    0.81
  -1  -1 -16   -0.94    0.97
  -1   1 -16    2.08    1.00
  -2  -1 -16   -0.85    0.88
  -2   1 -16    0.05    0.91
  -3  -1 -16   -0.39    1.07
  -3   1 -16   -0.02    0.89
  -4  -1 -16   -0.23    0.95
  -4   1 -16    0.76    0.97
  -5  -1 -16    2.00    1.22
  -5   1 -16   -1.02    0.86
  -6  -1 -16    0.56    1.14
  -6   1 -16    0.39    1.01
  -7  -1 -16   -0.78    0.99
  -7   1 -16    0.81    1.06
  -8  -1 -16    1.36    1.24
  -8   1 -16   -0.68    0.97
  16  -2 -16    2.02    1.17
  16   2 -16    1.24    1.02
  15  -2 -16    0.55    0.92
  15   2 -16    1.03    1.03
  14  -2 -16    1.90    1.07
  14   2 -16    0.44    0.86
  13  -2 -16    2.73    1.04
  13   2 -16    1.38    0.97
  12  -2 -16    5.81    1.18
  12   2 -16    6.52    1.24
  11  -2 -16    0.16    0.70
  11  -2 -16   -0.19    0.81
  11   2 -16    1.26    0.79
  10  -2 -16    1.36    0.80
  10  -2 -16   -0.30    0.63
  10   2 -16    0.06    0.68
   9  -2 -16    0.65    0.70
   9  -2 -16    0.35    0.71
   9   2 -16    0.11    0.65
   8  -2 -16    7.85    0.98
   8  -2 -16    5.27    1.00
   8   2 -16    7.90    1.10
   7  -2 -16    6.60    0.90
   7  -2 -16    5.71    1.02
   7   2 -16    6.51    1.02
   7   2 -16    5.94    0.92
   6  -2 -16    0.46    0.79
   6   2 -16    1.09    0.65
   6   2 -16    0.60    0.79
   5  -2 -16    1.10    0.86
   5   2 -16    0.70    0.87
   5   2 -16    0.00    0.55
   4  -2 -16    1.25    0.79
   4   2 -16    1.47    0.93
   4   2 -16    1.36    0.63
   3  -2 -16    6.65    1.18
   3   2 -16    5.74    1.17
   3   2 -16    7.06    0.89
   2  -2 -16    3.76    0.99
   2   2 -16    3.20    0.72
   2   2 -16    2.44    1.07
   1  -2 -16   -0.23    0.93
   1   2 -16    1.12    0.91
   0  -2 -16    2.43    0.99
   0   2 -16    2.94    1.04
  -1  -2 -16    2.97    1.07
  -1   2 -16    3.66    1.20
  -2  -2 -16    1.95    1.16
  -2   2 -16    2.26    1.07
  -3  -2 -16   -0.13    1.13
  -3   2 -16    0.89    0.97
  -4  -2 -16   -0.37    1.00
  -4   2 -16   -0.14    1.03
  -5  -2 -16    0.76    1.19
  -5   2 -16   -0.07    0.94
  -6  -2 -16    1.54    1.25
  -6   2 -16    1.96    1.11
  -7  -2 -16    4.01    1.36
  -7   2 -16    2.41    1.29
  -8  -2 -16    0.68    1.24
  -8   2 -16    1.80    1.26
  16  -3 -16    0.38    1.07
  15  -3 -16    1.76    1.10
  15   3 -16    1.04    0.95
  14  -3 -16    2.04    1.05
  14   3 -16    2.27    1.00
  13  -3 -16    1.27    1.00
  13   3 -16    2.11    0.93
  12  -3 -16    1.39    0.95
  12  -3 -16    2.08    0.82
  12   3 -16    0.44    0.78
  11  -3 -16    2.37    0.95
  11  -3 -16    1.64    0.78
  11   3 -16    3.13    1.01
  10  -3 -16    0.89    0.80
  10  -3 -16    0.31    0.73
  10   3 -16    1.03    0.74
   9  -3 -16   -0.03    0.70
   9  -3 -16    1.00    0.73
   9   3 -16    1.67    0.83
   8  -3 -16   -0.53    0.59
   8  -3 -16    0.54    0.67
   8   3 -16    0.33    0.65
   7  -3 -16    0.09    0.71
   7   3 -16   -0.33    0.83
   7   3 -16    0.25    0.66
   6  -3 -16   -0.96    0.70
   6   3 -16    0.37    0.63
   6   3 -16    0.04    0.78
   5  -3 -16    0.26    0.71
   5   3 -16    0.98    0.64
   5   3 -16   -0.19    0.82
   4  -3 -16   -0.16    0.70
   4   3 -16    0.20    0.51
   4   3 -16   -0.34    0.86
   3  -3 -16    1.28    0.83
   3   3 -16    0.84    0.62
   3   3 -16    0.29    0.89
   2  -3 -16    0.91    0.96
   2   3 -16    0.56    0.59
   2   3 -16    1.08    0.89
   1  -3 -16   -0.17    0.80
   1   3 -16    1.05    0.62
   1   3 -16    0.63    0.87
   0  -3 -16   10.64    1.36
   0   3 -16   14.37    1.65
  -1  -3 -16    1.05    0.96
  -1   3 -16    2.08    1.01
  -2  -3 -16    0.70    1.09
  -2   3 -16    0.28    0.89
  -3  -3 -16    1.72    1.24
  -3   3 -16    1.96    1.15
  -4  -3 -16    4.48    1.42
  -4   3 -16    3.06    1.17
  -5  -3 -16   -0.27    1.02
  -5   3 -16    1.72    1.21
  -6  -3 -16   -0.45    1.03
  -6   3 -16    1.17    1.00
  -7  -3 -16    1.29    1.23
  -7   3 -16    0.43    1.17
  -8  -3 -16    2.07    1.31
  -8   3 -16    0.36    1.05
  16  -4 -16    2.02    1.14
  15  -4 -16    1.96    1.00
  15   4 -16    1.83    0.98
  14  -4 -16    0.04    0.83
  14   4 -16    1.73    1.05
  13  -4 -16    3.78    1.13
  13  -4 -16    3.57    1.31
  13   4 -16    5.39    1.23
  12  -4 -16    1.66    0.97
  12  -4 -16    1.23    0.79
  12   4 -16    3.32    1.08
  11  -4 -16    0.31    0.75
  11  -4 -16    0.43    0.74
  11   4 -16   -0.48    0.69
  10  -4 -16    0.43    0.76
  10  -4 -16    0.37    0.67
  10   4 -16    0.21    0.80
   9  -4 -16    2.14    0.80
   9  -4 -16    1.09    0.75
   9   4 -16    1.91    0.84
   8  -4 -16    0.97    0.69
   8   4 -16    0.98    0.77
   7  -4 -16    2.14    0.80
   7   4 -16    1.66    0.73
   6  -4 -16    1.02    0.81
   6   4 -16    0.03    0.62
   6   4 -16   -0.09    0.77
   5  -4 -16    0.22    0.72
   5   4 -16   -0.42    0.52
   5   4 -16    0.12    0.78
   4  -4 -16    2.41    0.87
   4   4 -16    2.24    0.92
   4   4 -16    2.72    0.78
   3  -4 -16    4.58    1.05
   3   4 -16    4.30    0.85
   3   4 -16    4.79    1.10
   2  -4 -16    5.31    1.14
   2   4 -16    6.22    1.20
   2   4 -16    5.22    0.88
   1  -4 -16    2.56    0.98
   1   4 -16    2.19    0.75
   1   4 -16    3.28    1.13
   0  -4 -16    0.96    0.89
   0   4 -16    1.26    1.04
   0   4 -16    2.12    0.77
  -1  -4 -16    5.09    1.18
  -1   4 -16    3.45    1.20
  -2  -4 -16    7.08    1.33
  -2   4 -16    7.21    1.46
  -3  -4 -16    2.07    0.55
  -3  -4 -16    0.69    1.06
  -3   4 -16    1.92    1.20
  -4  -4 -16    0.50    1.04
  -4   4 -16    1.66    1.17
  -5  -4 -16    0.98    1.11
  -5   4 -16    1.93    1.06
  -6  -4 -16    2.64    1.25
  -6   4 -16    3.50    1.24
  -7  -4 -16    2.63    1.31
  -7   4 -16    1.27    1.12
  15  -5 -16    1.76    1.09
  15   5 -16    2.03    1.09
  14  -5 -16    0.61    0.95
  14   5 -16    0.94    0.89
  13  -5 -16    0.84    0.84
  13  -5 -16    0.03    0.76
  13   5 -16    1.23    0.88
  12  -5 -16   -0.26    0.71
  12  -5 -16   -0.39    0.79
  12   5 -16   -0.16    0.74
  11  -5 -16    1.08    0.81
  11  -5 -16    1.37    0.84
  11   5 -16    2.29    0.93
  10  -5 -16    2.29    0.91
  10  -5 -16    2.27    0.83
  10   5 -16    2.35    0.91
   9  -5 -16    0.06    0.72
   9   5 -16    1.28    0.77
   8  -5 -16    0.81    0.74
   8   5 -16    0.64    0.66
   7  -5 -16   -0.67    0.70
   7   5 -16    0.87    0.68
   6  -5 -16    0.01    0.72
   6   5 -16    0.69    0.74
   5  -5 -16    0.70    0.83
   5   5 -16    0.50    0.66
   5   5 -16    0.78    0.76
   4  -5 -16   -0.44    0.78
   4   5 -16    0.14    0.72
   4   5 -16    0.37    0.65
   3  -5 -16    2.82    0.93
   3   5 -16    2.92    0.97
   3   5 -16    3.09    0.85
   2  -5 -16   -0.38    0.78
   2   5 -16   -0.52    0.59
   2   5 -16   -0.13    0.86
   1  -5 -16    0.08    0.92
   1   5 -16    2.36    0.81
   1   5 -16    1.79    0.94
   0  -5 -16    3.21    1.14
   0   5 -16    8.98    1.47
   0   5 -16    6.76    1.09
  -1  -5 -16    0.64    1.07
  -1   5 -16    1.20    0.98
  -1   5 -16    2.16    0.83
  -2  -5 -16    0.91    1.09
  -2   5 -16    0.44    1.03
  -3  -5 -16   -0.89    1.05
  -3  -5 -16    0.84    0.49
  -3   5 -16   -0.78    1.05
  -4  -5 -16    1.55    0.58
  -4  -5 -16    2.25    1.16
  -5  -5 -16   -0.15    1.10
  -5   5 -16    0.70    1.03
  -6  -5 -16    0.38    1.10
  -6   5 -16    2.22    1.17
  -7  -5 -16   -0.41    1.24
  -7   5 -16    1.14    1.06
  15  -6 -16    0.73    0.96
  14  -6 -16    0.18    0.68
  14  -6 -16   -0.51    0.97
  14   6 -16    0.43    0.90
  13  -6 -16    2.52    1.06
  13  -6 -16    1.26    0.87
  13   6 -16    2.23    0.98
  12  -6 -16    1.46    0.98
  12  -6 -16    1.61    0.79
  12   6 -16    2.28    1.00
  11  -6 -16    2.14    0.82
  11   6 -16    1.10    0.92
  10  -6 -16    0.06    0.79
  10   6 -16    0.82    0.84
   9  -6 -16    1.47    0.84
   9   6 -16    1.26    0.78
   8  -6 -16    7.81    1.23
   8   6 -16    6.90    1.17
   7  -6 -16   16.30    1.54
   7   6 -16   16.39    1.41
   6  -6 -16    1.45    0.87
   6   6 -16    2.21    0.89
   5  -6 -16    9.08    1.30
   5   6 -16    8.46    1.15
   4  -6 -16   13.34    1.52
   4   6 -16   12.54    1.38
   4   6 -16   15.34    1.39
   3  -6 -16    5.19    1.06
   3   6 -16    7.05    1.06
   3   6 -16    7.91    1.25
   2  -6 -16    2.40    1.00
   2   6 -16    2.70    1.04
   2   6 -16    0.96    0.78
   1  -6 -16   -0.49    0.93
   1   6 -16    0.82    0.95
   1   6 -16   -0.99    0.53
   0  -6 -16   -0.05    0.97
   0   6 -16    2.16    1.10
   0   6 -16    2.38    0.91
  -1  -6 -16    2.45    1.16
  -1   6 -16    4.03    0.99
  -1   6 -16    4.77    1.28
  -2  -6 -16    0.40    1.09
  -2   6 -16    3.24    1.12
  -2   6 -16    2.43    0.93
  -3  -6 -16   -0.69    1.04
  -3  -6 -16    0.51    0.45
  -3   6 -16    0.85    1.09
  -4  -6 -16   -0.04    1.06
  -4  -6 -16    1.17    0.59
  -4   6 -16    0.66    1.04
  -5  -6 -16    0.58    0.59
  -5  -6 -16    0.11    1.21
  -5   6 -16    0.89    1.11
  -6  -6 -16    0.80    1.32
  -6   6 -16    2.02    1.29
  -7  -6 -16    1.45    1.31
  -7   6 -16    1.15    1.12
  15  -7 -16    0.66    0.83
  15  -7 -16    1.71    1.17
  14  -7 -16    1.59    1.09
  14  -7 -16    2.54    0.99
  13  -7 -16    0.59    0.80
  13  -7 -16    0.26    0.95
  13   7 -16    1.46    0.94
  12  -7 -16    0.27    0.80
  12   7 -16    0.38    0.76
  11  -7 -16    0.16    0.76
  11   7 -16    1.88    0.87
  10  -7 -16   -0.39    0.74
  10   7 -16    1.16    0.80
   9  -7 -16    0.61    0.83
   9   7 -16    1.60    0.88
   8  -7 -16    0.51    0.74
   8   7 -16    1.53    0.87
   7  -7 -16    0.33    0.85
   7   7 -16   -0.45    0.67
   6  -7 -16    2.00    0.85
   6   7 -16    3.03    0.88
   5  -7 -16    6.05    1.12
   5   7 -16    5.92    1.05
   4  -7 -16    3.81    0.98
   4   7 -16    3.95    0.93
   3  -7 -16    0.98    0.91
   3   7 -16    1.14    0.82
   3   7 -16    0.51    0.79
   2  -7 -16    2.21    0.92
   2   7 -16    1.73    0.82
   2   7 -16    2.74    1.03
   1  -7 -16    1.18    0.93
   1   7 -16    1.34    0.87
   1   7 -16    1.63    0.95
   0  -7 -16   -0.21    0.98
   0   7 -16    3.55    1.15
   0   7 -16    0.72    0.85
  -1  -7 -16   -0.06    0.99
  -1   7 -16    0.17    1.03
  -1   7 -16    0.53    0.81
  -2  -7 -16   -0.36    0.96
  -2   7 -16    1.40    1.14
  -2   7 -16    0.08    0.82
  -3  -7 -16    1.73    0.59
  -3  -7 -16    0.95    1.19
  -3   7 -16    0.99    0.92
  -3   7 -16    1.69    1.12
  -4  -7 -16    1.43    1.30
  -4  -7 -16    1.79    0.66
  -4   7 -16    1.59    1.10
  -5  -7 -16    1.01    0.62
  -5  -7 -16   -1.67    1.13
  -5   7 -16    0.73    1.03
  -6  -7 -16    0.68    0.66
  -6  -7 -16   -0.98    1.23
  -6   7 -16    0.72    1.22
  14  -8 -16    1.36    0.93
  13  -8 -16   -0.31    0.73
  13   8 -16    1.31    0.91
  12  -8 -16    1.41    0.82
  12   8 -16    1.37    0.91
  11  -8 -16   -0.41    0.66
  11   8 -16    0.21    0.75
  10  -8 -16   -0.48    0.63
  10   8 -16    0.66    0.76
   9  -8 -16    0.39    0.81
   9   8 -16    1.30    0.89
   8  -8 -16    2.11    0.99
   8   8 -16    2.68    0.98
   7  -8 -16    0.74    0.79
   7   8 -16    1.93    0.88
   6  -8 -16   -0.71    0.70
   6   8 -16    0.02    0.48
   5  -8 -16    0.54    0.80
   5   8 -16    0.49    0.60
   4  -8 -16   -0.49    0.78
   4   8 -16    0.44    0.62
   3  -8 -16    4.02    1.14
   3   8 -16    3.49    0.93
   2  -8 -16    0.56    0.85
   2   8 -16    1.83    0.95
   2   8 -16    0.78    0.73
   1  -8 -16   -0.42    0.94
   1   8 -16   -0.36    0.75
   1   8 -16    0.42    0.94
   0  -8 -16    0.53    1.05
   0   8 -16    1.84    1.05
   0   8 -16    1.53    0.92
  -1  -8 -16   -0.09    1.08
  -1   8 -16    3.26    1.19
  -1   8 -16    0.82    0.80
  -2  -8 -16   -0.72    1.10
  -2   8 -16    0.88    0.94
  -2   8 -16   -0.92    0.81
  -3  -8 -16    2.37    0.66
  -3  -8 -16    0.86    1.09
  -3   8 -16    1.00    1.00
  -3   8 -16    2.55    1.22
  -4  -8 -16    0.58    0.60
  -4  -8 -16    0.30    1.25
  -4   8 -16    0.89    1.18
  -5  -8 -16   -1.36    1.20
  -5  -8 -16    1.13    0.61
  -5   8 -16    1.91    1.23
  13  -9 -16    0.11    0.81
  12  -9 -16   -0.44    0.78
  12   9 -16    1.96    1.12
  11  -9 -16   -0.15    0.72
  11   9 -16    2.90    1.03
  10  -9 -16   -0.79    0.63
  10   9 -16    0.93    0.91
   9  -9 -16   -0.12    0.83
   9   9 -16    0.61    0.79
   8  -9 -16   -0.68    0.78
   8   9 -16    1.30    0.92
   7  -9 -16    0.65    0.87
   7   9 -16    0.39    0.79
   6  -9 -16    1.78    0.91
   6   9 -16    0.53    0.45
   5  -9 -16    4.23    1.14
   5   9 -16    1.78    0.62
   4  -9 -16    1.09    0.97
   4   9 -16    1.71    0.80
   3  -9 -16    0.25    0.96
   3   9 -16   -0.10    0.78
   2  -9 -16   -0.43    0.86
   2   9 -16    0.55    0.71
   1  -9 -16   -0.29    0.99
   1   9 -16    1.16    0.90
   1   9 -16   -0.54    0.69
   0  -9 -16    0.97    1.11
   0   9 -16    1.12    0.84
   0   9 -16    2.86    1.11
  -1  -9 -16   -1.02    1.04
  -1   9 -16    0.57    0.97
  -1   9 -16    0.22    0.81
  -2  -9 -16   -1.34    1.06
  -2   9 -16   -1.23    0.73
  -2   9 -16    1.04    1.15
  -3  -9 -16    2.48    0.71
  -3  -9 -16    1.34    1.14
  -3   9 -16    0.96    0.97
  -3   9 -16    2.80    1.21
   4  -9  16    4.27    0.91
  -4  -9 -16   -0.30    1.28
  -4  -9 -16    1.23    0.68
  -4   9 -16    1.35    1.23
  -5  -9 -16    0.20    1.30
  12 -10 -16   -0.03    0.84
  11 -10 -16   -0.75    0.77
  10 -10 -16    2.23    1.02
  10  10 -16    2.79    1.06
   9 -10 -16   -0.10    0.76
   9  10 -16    0.82    0.82
   8 -10 -16    1.06    0.93
   8  10 -16    0.56    0.86
   7 -10 -16    0.29    0.94
   7  10 -16   -0.04    0.32
   6 -10 -16   -0.51    0.88
   6  10 -16    0.29    0.40
   5 -10 -16   -0.20    0.78
   5  10 -16   -0.02    0.37
   4 -10 -16    0.69    0.89
   4  10 -16    0.27    0.65
   3 -10 -16   -0.80    0.83
   3  10 -16    0.45    0.74
   2 -10 -16    0.09    1.01
   2  10 -16   -0.36    0.76
   1 -10 -16    0.63    0.94
   1  10 -16   -0.91    0.69
   0 -10 -16   -0.84    0.88
   0  10 -16    0.65    0.96
   0  10 -16    0.13    0.88
  -1 -10 -16   -0.11    1.08
  -1  10 -16    0.97    1.04
  -1  10 -16   -0.14    0.83
  -2 -10 -16   -0.18    1.00
  -2 -10 -16    2.09    0.62
  -2  10 -16    2.00    1.21
  -2  10 -16    1.15    1.07
  -3 -10 -16   -0.15    1.24
  -3 -10 -16    0.25    0.58
  -3  10 -16    1.32    1.14
  11 -11 -16    3.99    1.09
  10 -11 -16    3.18    1.03
   9 -11 -16    4.52    1.22
   9  11 -16    4.12    1.60
   8 -11 -16   -0.72    0.74
   8  11 -16    0.26    0.32
   7 -11 -16   -0.52    0.81
   7  11 -16    0.10    0.29
   6 -11 -16    0.31    0.84
   6  11 -16   -0.24    0.24
   5 -11 -16    1.97    1.11
   5  11 -16    1.47    0.76
   4 -11 -16    0.39    0.88
   4  11 -16    0.96    0.78
   3 -11 -16    0.09    0.88
   3  11 -16    0.22    0.65
   2 -11 -16    0.01    1.10
   2  11 -16    0.60    0.81
   1 -11 -16    4.79    1.23
   1  11 -16    3.77    1.05
   0 -11 -16    8.15    1.52
   0  11 -16    5.69    1.19
  -1 -11 -16    1.07    1.26
  -1  11 -16    2.67    1.06
  -1  11 -16    0.73    1.03
  -2 -11 -16    1.51    0.63
  -2 -11 -16   -0.18    1.22
  -2  11 -16    0.52    1.05
   9 -12 -16   -0.49    0.91
   8 -12 -16    1.12    0.95
   7 -12 -16   -1.35    0.92
   6 -12 -16   -0.86    0.90
   5 -12 -16   -0.84    0.86
   4 -12 -16   -0.11    0.99
   4  12 -16   -1.17    0.81
   3 -12 -16   -0.74    1.02
   3  12 -16    0.42    0.97
   2 -12 -16   -1.37    1.03
   1 -12 -16    0.42    1.03
   0 -12 -16   -1.54    1.08
   5 -13 -16    1.43    1.11
   4 -13 -16    1.31    1.20
   3 -13 -16    0.32    1.01
  16   0 -17    0.23    1.19
  15   0 -17    1.06    1.03
  14   0 -17    1.06    0.99
  13   0 -17    0.68    0.86
  12   0 -17    0.93    0.84
  11   0 -17    0.75    0.82
  10   0 -17    1.30    0.82
   9   0 -17   -0.90    0.68
   9   0 -17   -0.03    0.68
   8   0 -17   -0.45    0.72
   8   0 -17   -0.01    0.63
   7   0 -17   -0.06    0.78
   7   0 -17    0.03    0.56
   6   0 -17   -0.39    0.71
   6   0 -17    0.02    0.55
   5   0 -17    0.09    0.85
   4   0 -17   -0.14    0.87
   3   0 -17   -0.68    0.89
   2   0 -17   -0.46    0.94
   1   0 -17    0.35    1.03
   0   0 -17   -0.40    1.05
  -1   0 -17   -0.17    1.10
  -2   0 -17    0.76    1.04
  -3   0 -17    0.23    1.01
  -4   0 -17    0.19    1.00
  -5   0 -17    0.10    1.01
  -6   0 -17   -0.48    1.00
  -7   0 -17    0.45    1.09
  16  -1 -17    1.69    1.06
  15  -1 -17    2.32    1.13
  15   1 -17    0.72    1.05
  14  -1 -17    3.78    1.19
  14   1 -17    1.84    1.07
  13  -1 -17    3.26    1.03
  13   1 -17    2.76    0.97
  12  -1 -17    1.18    0.91
  12   1 -17    1.33    0.85
  11  -1 -17    2.33    0.85
  11   1 -17    1.40    0.81
  10  -1 -17    3.90    0.92
  10  -1 -17    3.54    0.91
  10   1 -17    3.97    0.94
   9  -1 -17    5.16    0.97
   9  -1 -17    4.17    0.87
   9   1 -17    6.03    0.99
   8  -1 -17    5.62    0.96
   8  -1 -17    4.61    0.88
   8   1 -17    5.19    0.94
   8   1 -17    4.65    1.02
   7  -1 -17    1.47    0.64
   7  -1 -17    0.74    0.86
   7   1 -17    1.10    0.67
   7   1 -17    0.60    0.80
   6  -1 -17    2.49    0.96
   6   1 -17    0.42    0.57
   6   1 -17    0.44    0.86
   5  -1 -17    3.32    0.94
   5   1 -17    3.50    0.94
   5   1 -17    4.61    0.81
   4  -1 -17   -0.63    0.74
   4   1 -17    0.86    0.95
   3  -1 -17    1.89    0.93
   3   1 -17    0.76    0.99
   2  -1 -17    3.87    1.14
   2   1 -17    4.20    1.12
   1  -1 -17    3.91    1.21
   1   1 -17    3.73    1.15
   0  -1 -17    1.69    1.02
   0   1 -17    5.34    1.32
  -1  -1 -17    1.08    1.02
  -1   1 -17    3.33    1.27
  -2  -1 -17    0.67    1.18
  -2   1 -17   -0.40    0.92
  -3  -1 -17    0.44    1.07
  -3   1 -17    0.23    0.94
  -4  -1 -17    1.12    1.11
  -4   1 -17    0.85    1.03
  -5  -1 -17    3.81    1.38
  -5   1 -17    1.95    1.22
  -6  -1 -17    2.06    1.33
  -6   1 -17    3.75    1.43
  -7  -1 -17    2.45    1.32
  -7   1 -17    1.41    1.29
  16  -2 -17    0.28    1.14
  15  -2 -17    2.79    1.04
  15   2 -17    1.60    1.06
  14   2 -17    2.13    1.03
  13  -2 -17    1.71    0.90
  13   2 -17    0.26    0.93
  12  -2 -17    1.52    0.96
  12   2 -17    2.86    1.03
  11  -2 -17   -1.06    0.64
  11  -2 -17    0.62    0.85
  11   2 -17    0.53    0.82
  10  -2 -17    2.79    0.91
  10  -2 -17   -0.19    0.75
  10   2 -17    2.13    0.89
   9  -2 -17    0.64    0.70
   9  -2 -17   -0.59    0.73
   9   2 -17    1.20    0.80
   8  -2 -17    0.63    0.62
   8  -2 -17    0.32    0.75
   8   2 -17    0.44    0.69
   7  -2 -17   -0.72    0.77
   7   2 -17   -1.33    0.73
   7   2 -17    0.29    0.63
   6  -2 -17    0.34    0.72
   6   2 -17    0.62    0.61
   6   2 -17    0.47    0.88
   5  -2 -17   -0.11    0.74
   5   2 -17   -0.19    0.88
   5   2 -17    1.14    0.64
   4  -2 -17    0.53    0.80
   4   2 -17    0.00    0.55
   4   2 -17    1.70    0.92
   3  -2 -17   -0.14    0.88
   3   2 -17    0.75    1.02
   2  -2 -17    0.47    0.97
   2   2 -17    0.26    0.92
   1  -2 -17    8.78    1.30
   1   2 -17   13.12    1.65
   0  -2 -17   -0.41    1.01
   0   2 -17   -0.25    0.93
  -1  -2 -17    0.30    0.97
  -1   2 -17   -0.27    1.05
  -2  -2 -17   -0.11    1.13
  -2   2 -17    1.26    1.08
  -3  -2 -17    1.34    1.12
  -3   2 -17    1.53    1.16
  -4  -2 -17    0.74    1.23
  -4   2 -17   -0.82    0.91
  -5  -2 -17    0.29    1.09
  -5   2 -17    0.15    1.11
  -6  -2 -17    0.89    1.26
  -6   2 -17    1.03    1.15
  -7  -2 -17   -0.29    1.19
  -7   2 -17    1.06    1.14
  16  -3 -17    1.21    1.38
  15  -3 -17    1.13    1.06
  15   3 -17    2.07    1.11
  14  -3 -17    4.48    1.13
  14   3 -17    5.38    1.21
  13  -3 -17    3.52    1.02
  13   3 -17    2.99    1.12
  12  -3 -17    0.23    0.84
  12  -3 -17    2.56    0.99
  12   3 -17    0.44    0.82
  11  -3 -17    2.34    0.92
  11  -3 -17    0.21    0.79
  11   3 -17    0.71    0.88
  10  -3 -17    1.83    0.82
  10  -3 -17    1.99    0.86
  10   3 -17    1.91    0.84
   9  -3 -17    0.80    0.77
   9  -3 -17   -0.02    0.68
   9   3 -17    0.15    0.67
   8  -3 -17    0.45    0.82
   8   3 -17    2.51    0.88
   7  -3 -17   -0.11    0.68
   7   3 -17    0.20    0.57
   7   3 -17    0.07    1.16
   6  -3 -17    0.87    0.87
   6   3 -17    1.42    0.64
   6   3 -17    0.80    0.90
   5  -3 -17    5.22    1.11
   5   3 -17    3.81    1.04
   5   3 -17    6.18    0.92
   4  -3 -17    3.30    1.04
   4   3 -17    2.16    1.02
   4   3 -17    2.41    0.72
   3  -3 -17    3.24    1.01
   3   3 -17    3.48    1.10
   3   3 -17    5.48    0.90
   2  -3 -17    5.03    1.19
   2   3 -17    4.27    1.12
   1  -3 -17    2.23    1.02
   1   3 -17    2.48    1.08
   0  -3 -17    6.03    1.33
   0   3 -17    8.51    1.50
  -1  -3 -17    6.05    1.28
  -1   3 -17    8.58    1.55
  -2  -3 -17   -0.37    1.12
  -2   3 -17   -0.15    0.96
  -3  -3 -17   -0.24    1.16
  -3   3 -17   -0.75    0.90
  -4  -3 -17    1.40    1.13
  -4   3 -17   -0.26    1.07
  -5  -3 -17    2.49    1.37
  -5   3 -17    3.81    1.34
  -6  -3 -17    2.09    1.24
  -6   3 -17    3.25    1.27
  -7  -3 -17    0.52    1.21
  -7   3 -17    0.47    1.20
  15  -4 -17    1.91    1.11
  15   4 -17    3.17    1.21
  14  -4 -17    2.90    1.11
  14   4 -17    2.08    1.00
  13  -4 -17    2.91    1.06
  13   4 -17    2.87    1.03
  12  -4 -17    1.94    0.96
  12  -4 -17    0.01    0.76
  12   4 -17    1.69    0.90
  11  -4 -17    2.17    0.92
  11  -4 -17    0.15    0.77
  11   4 -17    1.94    0.88
  10  -4 -17    0.55    0.83
  10   4 -17    2.35    0.95
   9  -4 -17   -1.32    0.69
   9   4 -17    0.87    0.80
   8  -4 -17   -1.05    0.71
   8   4 -17    0.33    0.66
   7  -4 -17   -0.30    0.70
   7   4 -17    0.55    0.64
   6  -4 -17    1.17    0.89
   6   4 -17    3.38    1.03
   6   4 -17    1.70    0.78
   5  -4 -17    0.28    0.88
   5   4 -17    0.65    0.67
   5   4 -17    0.39    0.87
   4  -4 -17   -0.42    0.76
   4   4 -17    0.23    0.63
   4   4 -17   -1.10    0.76
   3  -4 -17    4.15    1.07
   3   4 -17    4.33    0.91
   3   4 -17    5.22    1.22
   2  -4 -17    7.21    1.33
   2   4 -17    7.22    1.35
   2   4 -17    6.71    1.04
   1  -4 -17   10.13    1.39
   1   4 -17    7.32    1.32
   0  -4 -17    1.50    1.08
   0   4 -17    0.80    0.98
  -1  -4 -17    0.59    1.14
  -1   4 -17    0.83    1.00
  -2  -4 -17   -0.98    0.97
  -2   4 -17    1.02    1.10
  -3  -4 -17    3.97    1.25
  -3   4 -17    5.12    1.34
  -4  -4 -17    0.07    1.20
  -4   4 -17    0.88    1.06
  -5  -4 -17   -0.15    1.24
  -5   4 -17    2.18    1.14
  -6  -4 -17    0.63    1.30
  -6   4 -17    0.36    1.04
  -7  -4 -17    2.16    1.25
  -7   4 -17    3.47    1.37
  15  -5 -17    1.43    1.04
  14  -5 -17    3.31    1.11
  14   5 -17    1.82    0.99
  13  -5 -17    2.54    0.93
  13  -5 -17    0.41    0.70
  13   5 -17    2.94    1.02
  12  -5 -17    2.86    0.95
  12  -5 -17    1.36    0.84
  12   5 -17    2.07    1.02
  11  -5 -17   -0.96    0.62
  11   5 -17   -0.45    0.83
  10  -5 -17    0.53    0.84
  10   5 -17    1.32    0.90
   9  -5 -17   -0.01    0.74
   9   5 -17    2.31    0.90
   8  -5 -17    2.60    0.97
   8   5 -17    2.65    0.84
   7  -5 -17   -0.04    0.83
   7   5 -17    0.81    0.70
   6  -5 -17    3.34    1.04
   6   5 -17    2.46    0.86
   5  -5 -17    0.82    0.81
   5   5 -17    0.44    0.86
   5   5 -17    1.57    0.79
   4  -5 -17    0.51    0.94
   4   5 -17    0.36    0.66
   4   5 -17    0.84    0.88
   3  -5 -17    0.27    0.93
   3   5 -17    0.78    0.64
   3   5 -17    1.07    0.94
   2  -5 -17    0.11    0.89
   2   5 -17    2.11    0.81
   2   5 -17    2.15    1.06
   1  -5 -17    1.71    1.08
   1   5 -17    4.22    1.13
   1   5 -17    1.69    0.79
   0  -5 -17    5.03    1.33
   0   5 -17    6.97    1.74
   0   5 -17    6.23    1.43
  -1  -5 -17    2.27    1.10
  -1   5 -17    3.40    1.21
  -2  -5 -17    2.70    1.15
  -2   5 -17    1.07    1.02
  -3  -5 -17    1.54    0.56
  -3  -5 -17    0.88    1.13
  -3   5 -17    1.44    1.22
  -4  -5 -17    0.03    1.27
  -4   5 -17    0.81    1.17
  -5  -5 -17    2.41    1.40
  -5   5 -17    2.67    1.22
  -6  -5 -17    4.54    1.53
  -6   5 -17    4.31    1.36
  15  -6 -17    2.80    1.13
  14  -6 -17    1.54    1.02
  14  -6 -17    0.39    0.86
  14   6 -17    1.79    1.22
  13  -6 -17    0.38    0.82
  13  -6 -17    0.97    1.10
  13   6 -17    3.70    1.14
  12  -6 -17    1.15    0.91
  12   6 -17    2.64    0.97
  11  -6 -17    0.07    0.83
  11   6 -17    1.11    0.87
  10  -6 -17    0.58    0.76
  10   6 -17    0.27    0.75
   9  -6 -17   -0.09    0.82
   9   6 -17    1.51    0.86
   8  -6 -17    3.14    1.02
   8   6 -17    2.09    0.83
   7  -6 -17    3.93    0.99
   7   6 -17    6.22    1.14
   6  -6 -17    9.69    1.39
   6   6 -17   10.76    1.29
   5  -6 -17    6.79    1.29
   5   6 -17    8.78    1.22
   4  -6 -17    3.46    1.10
   4   6 -17    4.39    0.97
   4   6 -17    4.77    1.08
   3  -6 -17    0.62    0.96
   3   6 -17    1.15    0.95
   3   6 -17    0.48    0.75
   2  -6 -17    0.63    0.93
   2   6 -17    2.32    0.79
   2   6 -17    2.56    1.11
   1  -6 -17    1.54    1.09
   1   6 -17    1.65    0.83
   1   6 -17    3.70    1.21
   0  -6 -17   -0.13    1.04
   0   6 -17    0.46    1.07
   0   6 -17    0.18    0.76
  -1  -6 -17   -0.08    0.93
  -1   6 -17   -0.06    1.03
  -2  -6 -17    0.67    1.08
  -2   6 -17    1.43    1.05
  -3  -6 -17    0.85    1.14
  -3  -6 -17    2.04    0.60
  -3   6 -17    3.18    1.35
  -4  -6 -17    0.35    1.15
  -4  -6 -17    1.09    0.61
  -4   6 -17    0.23    1.04
  -5  -6 -17    0.83    1.20
  -5   6 -17    0.28    1.19
  -6  -6 -17   -0.06    1.26
  -6   6 -17    1.73    1.17
  14  -7 -17   -0.24    0.82
  13  -7 -17    1.06    0.81
  13   7 -17    2.60    0.99
  12  -7 -17    0.69    0.85
  12   7 -17    0.06    0.77
  11  -7 -17   -0.06    0.81
  11   7 -17    1.76    0.86
  10  -7 -17   -0.34    0.74
  10   7 -17    0.92    0.80
   9  -7 -17    0.35    0.85
   9   7 -17    1.52    0.85
   8  -7 -17    1.62    0.95
   8   7 -17    0.89    0.77
   7  -7 -17    0.30    0.90
   7   7 -17    0.76    0.87
   6  -7 -17    2.79    0.97
   6   7 -17    5.54    1.19
   5  -7 -17    1.76    0.94
   5   7 -17    0.96    0.72
   4  -7 -17    3.99    1.08
   4   7 -17    3.71    0.97
   3  -7 -17    0.09    0.84
   3   7 -17   -0.21    0.85
   3   7 -17    0.55    0.83
   2  -7 -17    1.01    1.06
   2   7 -17    0.90    0.91
   2   7 -17    0.21    0.69
   1  -7 -17   -0.93    0.86
   1   7 -17    1.09    1.05
   1   7 -17   -0.53    0.74
   0  -7 -17   -0.40    1.01
   0   7 -17    0.02    0.79
   0   7 -17   -0.23    0.98
  -1  -7 -17   -1.94    1.02
  -1   7 -17    0.82    0.97
  -1   7 -17   -0.36    0.77
  -2  -7 -17    0.78    1.22
  -2   7 -17    1.30    1.03
  -3  -7 -17    2.49    0.66
  -3  -7 -17   -0.30    1.27
  -3   7 -17    1.85    1.23
  -4  -7 -17    0.04    0.55
  -4  -7 -17    1.09    1.37
  -4   7 -17    0.10    1.14
  -5  -7 -17    0.54    1.34
  -5  -7 -17    0.58    0.63
  -5   7 -17    3.70    1.34
  13  -8 -17   -0.38    0.80
  12  -8 -17   -0.04    0.83
  12   8 -17    2.16    1.04
  11  -8 -17   -0.45    0.72
  11   8 -17    0.96    0.86
  10  -8 -17    1.28    0.95
  10   8 -17    3.26    0.98
   9  -8 -17   -0.37    0.74
   9   8 -17    1.85    0.88
   8  -8 -17   -0.43    0.83
   8   8 -17   -0.21    0.77
   7  -8 -17    2.08    0.95
   7   8 -17    1.65    0.84
   6  -8 -17    6.20    1.20
   6   8 -17    4.56    0.85
   5  -8 -17    0.45    0.86
   5   8 -17    0.58    0.59
   4  -8 -17   -0.10    0.84
   4   8 -17    0.26    0.67
   3  -8 -17   -0.42    0.83
   3   8 -17    1.25    0.79
   2  -8 -17   -0.74    0.98
   2   8 -17    2.32    1.02
   2   8 -17    0.29    0.72
   1  -8 -17   -0.28    0.93
   1   8 -17    1.93    1.04
   1   8 -17    1.24    0.83
   0  -8 -17   -0.83    1.07
   0   8 -17    1.34    0.99
   0   8 -17    0.29    0.86
  -1  -8 -17   -0.36    1.14
  -1   8 -17    0.62    0.90
  -1   8 -17    1.49    1.10
  -2  -8 -17    0.23    1.25
  -2  -8 -17    2.00    0.56
  -2   8 -17    1.33    0.99
  -2   8 -17    3.87    1.30
  -3  -8 -17    2.42    0.65
  -3  -8 -17    1.59    1.34
  -3   8 -17    2.97    1.19
  -4  -8 -17    1.63    0.69
  -4  -8 -17   -0.14    1.31
  -4   8 -17    0.36    1.02
  13  -9 -17   -0.57    0.84
  12  -9 -17   -0.88    0.81
  11  -9 -17   -1.13    0.65
  11   9 -17    1.76    0.94
  10  -9 -17   -0.02    0.84
  10   9 -17    1.17    0.90
   9  -9 -17    0.52    0.88
   9   9 -17    0.37    0.88
   8  -9 -17    0.14    0.91
   8   9 -17   -0.28    0.82
   7  -9 -17    0.27    0.95
   7   9 -17    0.24    0.41
   6  -9 -17   -0.10    0.89
   6   9 -17   -0.08    0.41
   5  -9 -17   -1.45    0.85
   5   9 -17    0.26    0.48
   4  -9 -17    0.47    0.89
   4   9 -17    1.39    0.77
   3  -9 -17   -0.01    0.85
   3   9 -17    1.58    0.93
   2  -9 -17   -0.90    0.98
   2   9 -17   -0.14    0.73
   1  -9 -17   -0.79    0.90
   1   9 -17    0.53    0.89
   1   9 -17   -0.52    0.84
   0  -9 -17   -2.03    1.04
   0   9 -17    1.80    1.03
   0   9 -17    0.90    0.98
  -1  -9 -17   -1.59    1.10
  -1   9 -17   -0.67    0.86
  -1   9 -17    1.54    1.17
  -2  -9 -17   -1.13    1.19
  -2  -9 -17    1.14    0.57
  -2   9 -17   -0.32    0.99
  -2   9 -17    1.98    1.17
   3  -9  17    3.95    0.89
  -3  -9 -17    0.49    1.34
  -3  -9 -17    1.19    0.63
  -3   9 -17    1.46    1.09
  11 -10 -17    0.54    0.95
  10 -10 -17    2.47    1.13
   9 -10 -17   -0.40    0.80
   9  10 -17    0.41    0.89
   8 -10 -17   -0.43    0.89
   8  10 -17    0.36    0.37
   7 -10 -17   -0.35    0.94
   7  10 -17    0.15    0.35
   6 -10 -17    0.18    0.96
   6  10 -17    0.58    0.48
   5 -10 -17    0.41    0.88
   5  10 -17    0.31    0.45
   4 -10 -17    0.10    0.93
   4  10 -17   -0.40    0.61
   3 -10 -17   -0.73    0.91
   3  10 -17    0.77    0.78
   2 -10 -17    0.07    0.95
   2  10 -17    1.21    0.86
   1 -10 -17   -0.49    1.08
   1  10 -17    0.02    0.95
   0 -10 -17   -0.11    1.06
   0  10 -17    0.52    0.92
   0  10 -17   -0.44    0.78
  -1 -10 -17   -2.45    1.02
  -1  10 -17    1.41    1.11
  -1  10 -17   -0.11    0.97
  -2 -10 -17   -0.59    1.22
  -2 -10 -17    1.69    0.59
  -2  10 -17    1.56    1.14
  -2  10 -17    1.07    1.01
  10 -11 -17    0.07    0.86
   9 -11 -17    0.07    0.98
   8 -11 -17    0.78    0.94
   7 -11 -17   -0.75    0.93
   7  11 -17   -0.11    0.31
   6 -11 -17   -1.48    0.79
   6  11 -17    0.03    0.37
   5 -11 -17    0.06    0.94
   5  11 -17   -0.53    0.49
   4 -11 -17    0.01    0.95
   4  11 -17   -0.12    0.79
   3 -11 -17    0.43    1.08
   3  11 -17    0.68    0.85
   2 -11 -17   -2.53    0.82
   2  11 -17    0.00    0.77
   1 -11 -17   -1.15    1.13
   1  11 -17   -0.59    0.86
   0 -11 -17   -1.70    1.09
   0  11 -17   -0.80    1.42
  -1 -11 -17   -1.48    1.17
  -1  11 -17    1.06    0.97
   7 -12 -17   -1.09    0.98
   6 -12 -17   -0.74    1.02
   5 -12 -17   -1.09    1.00
   4 -12 -17   -1.34    1.05
   3 -12 -17   -0.47    1.01
   2 -12 -17    4.25    1.31
  15   0 -18    3.94    1.24
  14   0 -18    2.44    1.05
  13   0 -18    1.39    0.97
  12   0 -18    1.49    0.94
  11   0 -18    0.66    0.82
  10   0 -18    1.65    0.82
   9   0 -18    2.42    0.83
   9   0 -18   -1.06    0.82
   8   0 -18    0.19    0.86
   8   0 -18    0.14    0.64
   7   0 -18    0.73    0.68
   7   0 -18    0.23    0.90
   6   0 -18    2.69    0.93
   5   0 -18    7.14    1.28
   4   0 -18   -0.61    0.79
   3   0 -18    0.05    0.90
   2   0 -18    8.29    1.43
   1   0 -18    2.54    1.26
   0   0 -18   -1.16    0.94
  -1   0 -18   -0.35    1.02
  -2   0 -18    1.29    1.12
  -3   0 -18   -0.61    1.02
  -4   0 -18    0.90    1.13
  -5   0 -18    3.80    1.31
  -6   0 -18    0.69    1.23
  15  -1 -18    1.39    1.08
  15   1 -18    1.31    0.96
  14  -1 -18    0.60    0.80
  14   1 -18    1.77    1.03
  13  -1 -18    0.97    1.00
  13   1 -18    5.31    1.20
  12  -1 -18    1.66    0.96
  12   1 -18    3.33    1.02
  11  -1 -18    0.40    0.80
  11   1 -18    0.00    0.82
  10  -1 -18    0.71    0.79
  10  -1 -18   -0.87    0.73
  10   1 -18    1.40    0.81
   9  -1 -18   -0.20    0.81
   9  -1 -18    0.41    0.70
   9   1 -18    0.26    0.67
   8  -1 -18    0.71    0.87
   8  -1 -18    1.15    1.01
   8   1 -18    1.71    0.75
   8   1 -18    0.17    0.85
   7  -1 -18    0.50    0.81
   7   1 -18   -0.53    0.81
   7   1 -18    1.40    0.68
   6  -1 -18    0.29    0.91
   6   1 -18    1.41    0.66
   6   1 -18   -0.17    0.80
   5  -1 -18   -0.11    0.78
   5   1 -18    0.23    0.93
   4  -1 -18   -0.07    0.85
   4   1 -18   -0.19    0.99
   3  -1 -18   -0.89    0.81
   3   1 -18    1.79    1.00
   2  -1 -18    4.60    1.17
   2   1 -18    5.35    1.32
   1  -1 -18   -0.07    0.95
   1   1 -18    1.18    1.19
   0  -1 -18   -0.92    0.98
   0   1 -18    0.62    1.08
  -1  -1 -18   -1.10    0.97
  -1   1 -18   -0.50    1.12
  -2  -1 -18    0.35    1.09
  -2   1 -18    0.32    1.19
  -3  -1 -18   -1.59    0.95
  -3   1 -18    0.28    1.05
  -4  -1 -18   -0.24    1.08
  -4   1 -18    0.38    1.04
  -5  -1 -18    0.02    1.26
  -5   1 -18    0.39    1.27
  -6  -1 -18    0.52    1.29
  -6   1 -18    0.91    1.27
  15  -2 -18    3.84    1.20
  15   2 -18    2.67    1.11
  14  -2 -18    4.37    1.15
  14   2 -18    2.42    1.11
  13  -2 -18    1.76    0.99
  13   2 -18    1.48    0.99
  12  -2 -18    1.06    0.91
  12   2 -18    1.45    0.97
  11  -2 -18    2.12    0.85
  11  -2 -18    0.90    0.87
  11   2 -18    3.25    1.04
  10  -2 -18    3.88    0.93
  10  -2 -18    1.47    0.90
  10   2 -18    3.66    0.92
   9  -2 -18    0.45    0.82
   9   2 -18    1.99    0.84
   8  -2 -18   -0.84    0.79
   8   2 -18    0.39    0.61
   7  -2 -18    0.56    0.77
   7   2 -18    0.71    0.68
   7   2 -18   -0.82    0.84
   6  -2 -18    4.80    1.14
   6   2 -18    3.95    0.82
   6   2 -18    3.95    1.13
   5  -2 -18    0.75    0.98
   5   2 -18    1.28    1.03
   5   2 -18    1.05    0.66
   4  -2 -18    0.48    0.89
   4   2 -18    1.09    1.06
   3  -2 -18    1.54    0.97
   3   2 -18    2.02    1.06
   2  -2 -18    0.35    0.94
   2   2 -18    0.51    1.13
   1  -2 -18   13.99    1.69
   1   2 -18   13.07    1.74
   0  -2 -18    4.87    1.37
   0   2 -18    4.60    1.28
  -1  -2 -18    0.09    1.05
  -1   2 -18    0.00    1.18
  -2  -2 -18   -1.46    1.01
  -2   2 -18    0.84    1.07
  -3  -2 -18    1.33    1.26
  -3   2 -18    2.18    1.27
  -4  -2 -18    0.77    1.24
  -4   2 -18    2.82    1.27
  -5  -2 -18    2.66    1.28
  -5   2 -18    1.73    1.33
  -6  -2 -18    1.77    1.40
  -6   2 -18    0.88    1.12
  15  -3 -18    1.42    1.03
  15   3 -18    2.14    1.28
  14  -3 -18    3.44    1.14
  14   3 -18    0.58    0.96
  13  -3 -18    0.20    0.81
  13   3 -18    1.68    1.04
  12  -3 -18    1.42    0.93
  12   3 -18    1.49    0.86
  11  -3 -18    1.45    0.89
  11  -3 -18    2.87    0.93
  11   3 -18    2.76    0.97
  10  -3 -18   -0.15    0.85
  10   3 -18    0.85    0.81
   9  -3 -18   -0.70    0.82
   9   3 -18    0.11    0.72
   8  -3 -18   -0.70    0.80
   8   3 -18   -0.07    0.59
   7  -3 -18    0.63    0.86
   7   3 -18    0.83    0.71
   6  -3 -18    3.07    1.05
   6   3 -18    3.44    0.88
   6   3 -18    3.43    1.09
   5  -3 -18   -0.40    0.80
   5   3 -18   -0.61    0.96
   5   3 -18   -0.22    0.63
   4  -3 -18   -0.13    0.85
   4   3 -18    0.47    0.63
   4   3 -18   -0.24    0.89
   3  -3 -18    0.10    0.88
   3   3 -18    1.59    1.00
   2  -3 -18    1.78    1.01
   2   3 -18    3.97    1.18
   1  -3 -18   -0.07    1.06
   1   3 -18   -0.81    0.95
   0  -3 -18   -0.52    0.95
   0   3 -18    1.42    1.11
  -1  -3 -18    0.15    1.01
  -1   3 -18    0.91    1.02
  -2  -3 -18   -0.23    1.17
  -2   3 -18    0.28    1.13
  -3  -3 -18   -1.26    1.02
  -3   3 -18   -0.64    1.06
  -4  -3 -18   -0.58    1.26
  -4   3 -18   -0.41    0.99
  -5  -3 -18   -0.44    1.11
  -5   3 -18    0.49    1.08
  -6  -3 -18    1.72    1.38
  -6   3 -18    2.32    1.36
  15  -4 -18    1.26    1.08
  14  -4 -18    2.32    1.08
  14   4 -18    0.80    1.00
  13  -4 -18    2.77    1.04
  13   4 -18    1.64    1.02
  12  -4 -18    1.23    0.88
  12  -4 -18    0.09    0.82
  12   4 -18    0.73    0.84
  11  -4 -18    0.16    0.86
  11   4 -18    2.14    0.89
  10  -4 -18    0.84    0.88
  10   4 -18    1.20    0.91
   9  -4 -18    3.18    1.06
   9   4 -18    4.55    1.05
   8  -4 -18   -0.31    0.87
   8   4 -18   -0.56    0.54
   7  -4 -18    0.39    0.81
   7   4 -18    2.20    0.78
   6  -4 -18    4.61    1.17
   6   4 -18    3.57    0.85
   6   4 -18    3.72    1.54
   5  -4 -18   -0.15    0.82
   5   4 -18    2.12    0.81
   5   4 -18    0.84    0.97
   4  -4 -18    1.07    0.94
   4   4 -18    1.33    1.00
   4   4 -18    1.62    0.77
   3  -4 -18    0.76    0.93
   3   4 -18    1.32    0.75
   3   4 -18    1.37    1.10
   2  -4 -18    0.19    1.01
   2   4 -18   -0.09    0.89
   1  -4 -18    1.34    1.04
   1   4 -18    4.06    1.26
   0  -4 -18    2.76    1.14
   0   4 -18    3.09    1.28
  -1  -4 -18    0.38    1.16
  -1   4 -18    1.41    1.22
  -2  -4 -18   -0.91    1.05
  -2   4 -18    0.17    1.01
  -3  -4 -18   -0.45    1.08
  -3   4 -18    0.89    1.03
  -4  -4 -18   -0.32    1.30
  -4   4 -18    1.39    1.10
  -5  -4 -18    2.32    1.31
  -5   4 -18    3.24    1.30
  -6  -4 -18    0.53    1.33
  -6   4 -18    1.90    1.31
  15  -5 -18    1.41    1.10
  14  -5 -18    2.45    1.02
  14   5 -18    0.90    1.04
  13  -5 -18    1.32    0.97
  13   5 -18    3.91    1.17
  12  -5 -18    0.26    0.88
  12   5 -18    1.35    0.89
  11  -5 -18   -0.39    0.82
  11   5 -18    0.52    0.78
  10  -5 -18   -0.86    0.79
  10   5 -18    0.51    0.84
   9  -5 -18    1.03    0.93
   9   5 -18    2.63    0.96
   8  -5 -18   -0.80    0.83
   8   5 -18    0.77    0.72
   7  -5 -18   -0.64    0.87
   7   5 -18    0.84    0.77
   6  -5 -18   -0.30    0.80
   6   5 -18   -0.26    0.69
   5  -5 -18   -0.30    0.84
   5   5 -18   -0.74    0.81
   5   5 -18    0.26    0.72
   4  -5 -18   -0.57    0.85
   4   5 -18    0.48    0.94
   4   5 -18    0.65    0.72
   3  -5 -18   -0.29    0.88
   3   5 -18   -0.57    0.66
   3   5 -18   -0.20    0.90
   2  -5 -18    0.61    0.95
   2   5 -18    0.44    0.72
   2   5 -18    0.98    0.94
   1  -5 -18    0.64    1.09
   1   5 -18    0.97    1.14
   0  -5 -18   -0.37    0.95
   0   5 -18    0.70    1.05
  -1  -5 -18   -1.07    1.14
  -1   5 -18   -0.28    1.14
  -2  -5 -18    0.14    1.10
  -2   5 -18    3.25    1.22
  -3  -5 -18    0.44    1.16
  -3   5 -18    1.54    1.21
  -4  -5 -18   -0.66    1.27
  -4   5 -18   -0.03    1.15
  -5  -5 -18    0.24    1.36
  -5   5 -18    2.35    1.37
  14  -6 -18    0.16    0.93
  13  -6 -18    0.44    0.83
  13   6 -18    2.37    0.97
  12  -6 -18   -0.77    0.81
  12   6 -18    0.80    0.93
  11  -6 -18   -0.30    0.81
  11   6 -18   -0.11    0.71
  10  -6 -18    1.79    0.89
  10   6 -18    2.96    1.04
   9  -6 -18    3.51    1.03
   9   6 -18    3.45    1.01
   8  -6 -18    1.90    1.02
   8   6 -18    2.38    0.94
   7  -6 -18    0.05    0.81
   7   6 -18   -0.03    0.78
   6  -6 -18    3.58    1.19
   6   6 -18    3.97    1.01
   5  -6 -18    8.60    1.32
   5   6 -18   11.97    1.37
   4  -6 -18    2.85    1.05
   4   6 -18    4.84    1.06
   4   6 -18    4.95    1.15
   3  -6 -18   -0.39    0.85
   3   6 -18    0.36    0.76
   3   6 -18   -0.77    0.87
   2  -6 -18    1.28    1.12
   2   6 -18    1.35    0.86
   2   6 -18    2.25    1.14
   1  -6 -18    1.38    1.14
   1   6 -18    3.45    0.97
   1   6 -18    4.30    1.32
   0  -6 -18   -0.15    1.00
   0   6 -18    0.14    1.11
  -1  -6 -18    0.51    1.11
  -1   6 -18    2.92    1.24
  -2  -6 -18    1.24    0.53
  -2  -6 -18   -0.69    1.18
  -2   6 -18    0.44    1.02
  -3  -6 -18   -0.25    1.26
  -3  -6 -18    1.16    0.62
  -3   6 -18    1.78    1.28
  -4  -6 -18    1.37    1.28
  -4   6 -18    1.78    1.17
  -5  -6 -18    1.13    1.37
  -5   6 -18    3.24    1.40
  14  -7 -18   -0.67    0.82
  13  -7 -18   -0.47    0.85
  12  -7 -18    2.22    0.99
  12   7 -18    2.97    1.06
  11  -7 -18   -0.01    0.86
  11   7 -18    2.00    0.94
  10  -7 -18   -0.46    0.74
  10   7 -18    0.82    0.87
   9  -7 -18   -0.40    0.88
   9   7 -18    1.85    0.85
   8  -7 -18    0.66    0.94
   8   7 -18    0.23    0.80
   7  -7 -18    0.27    0.93
   7   7 -18    1.20    0.79
   6  -7 -18   -1.05    0.78
   6   7 -18    0.12    0.68
   5  -7 -18    0.57    1.01
   5   7 -18   -0.01    0.62
   4  -7 -18    0.61    1.03
   4   7 -18    1.29    0.85
   3  -7 -18    1.41    1.12
   3   7 -18    3.82    1.15
   3   7 -18    2.08    0.94
   2  -7 -18    1.28    1.03
   2   7 -18    1.38    0.84
   2   7 -18    1.62    1.04
   1  -7 -18   -1.48    0.90
   1   7 -18   -0.54    1.00
   1   7 -18   -1.01    0.78
   0  -7 -18    1.71    1.22
   0   7 -18    1.41    0.86
   0   7 -18    2.04    1.08
  -1  -7 -18    1.32    1.29
  -1   7 -18    1.64    1.09
  -2  -7 -18    1.18    1.19
  -2  -7 -18    3.68    0.70
  -2   7 -18    0.90    1.10
  -3  -7 -18   -0.99    1.22
  -3  -7 -18    1.83    0.64
  -3   7 -18    1.61    1.17
  -4  -7 -18   -0.95    1.27
  -4  -7 -18    0.38    0.60
  -4   7 -18    2.90    1.36
  13  -8 -18   -0.94    0.86
  12  -8 -18   -0.39    0.92
  11  -8 -18    0.15    0.89
  11   8 -18    1.25    0.85
  10  -8 -18    0.55    0.97
  10   8 -18   -0.18    0.82
   9  -8 -18   -0.52    0.79
   9   8 -18    1.20    0.84
   8  -8 -18   -0.98    0.85
   8   8 -18    0.53    0.81
   7  -8 -18    0.48    0.86
   7   8 -18    1.12    0.61
   6  -8 -18    0.96    0.94
   6   8 -18    0.58    0.59
   5  -8 -18    1.11    1.04
   5   8 -18    0.81    0.65
   4  -8 -18   -0.81    0.98
   4   8 -18    0.27    0.80
   3  -8 -18   -0.50    1.04
   3   8 -18   -0.26    0.68
   2  -8 -18   -1.03    1.03
   2   8 -18    0.78    0.90
   2   8 -18   -0.25    0.74
   1  -8 -18    0.14    1.05
   1   8 -18    1.05    1.04
   1   8 -18   -0.46    0.80
   0  -8 -18   -0.36    1.21
   0   8 -18    1.63    1.15
   0   8 -18   -0.26    0.74
  -1  -8 -18    1.83    1.22
  -1   8 -18    3.46    1.28
  -1   8 -18    0.80    0.97
  -2  -8 -18    1.69    0.63
  -2  -8 -18   -0.30    1.15
  -2   8 -18    1.43    1.08
  -3  -8 -18    1.01    0.56
  -3  -8 -18   -0.86    1.26
  -3   8 -18    1.39    1.11
  12  -9 -18    0.62    0.99
  11  -9 -18    1.08    0.91
  10  -9 -18    0.26    0.96
  10   9 -18    0.41    0.79
   9  -9 -18    0.18    0.96
   9   9 -18    0.76    0.96
   8  -9 -18    0.85    1.02
   8   9 -18    1.51    0.98
   7  -9 -18    0.48    1.02
   7   9 -18    0.73    0.55
   6  -9 -18    0.25    1.05
   6   9 -18   -0.38    0.39
   5  -9 -18    0.46    0.95
   5   9 -18    0.24    0.54
   4  -9 -18   -0.03    1.01
   4   9 -18    1.08    0.73
   3  -9 -18   -0.57    1.03
   3   9 -18    1.84    0.94
   2  -9 -18    0.54    1.07
   2   9 -18    0.27    0.88
   1  -9 -18    0.84    1.08
   1   9 -18   -1.21    0.84
   1   9 -18    1.36    1.07
   0  -9 -18   -1.15    1.15
   0   9 -18    1.14    1.17
   0   9 -18    2.05    1.04
  -1  -9 -18   -2.04    1.20
  -1   9 -18    0.01    0.83
  -1   9 -18    0.27    1.06
  -2  -9 -18    1.25    1.25
  -2  -9 -18    3.59    0.75
  -2   9 -18    1.05    1.65
  -2   9 -18    3.54    1.26
  10 -10 -18    1.12    1.08
   9 -10 -18   -0.28    0.94
   8 -10 -18    0.17    1.01
   8  10 -18    0.44    0.42
   7 -10 -18   -0.17    0.88
   7  10 -18    0.41    0.42
   6 -10 -18   -1.61    0.95
   6  10 -18   -0.06    0.39
   5 -10 -18   -0.22    1.04
   5  10 -18    0.05    0.73
   4 -10 -18    0.08    1.15
   4  10 -18   -0.08    0.79
   3 -10 -18   -1.09    1.05
   3  10 -18    0.05    0.87
   2 -10 -18   -0.75    1.12
   2  10 -18    1.13    1.02
   1 -10 -18   -1.46    1.13
   1  10 -18   -0.13    0.83
   0 -10 -18   -2.30    0.96
   0  10 -18    0.84    0.97
   0  10 -18   -0.73    0.91
  -1 -10 -18   -0.78    1.22
  -1  10 -18    2.37    1.14
   8 -11 -18    3.34    1.28
   7 -11 -18    3.18    1.28
   6 -11 -18   -0.32    1.09
   5 -11 -18   -1.76    0.91
   4 -11 -18    0.56    1.24
   3 -11 -18    1.31    1.30
   2 -11 -18   -0.03    1.21
   1 -11 -18   -0.53    1.30
  15   0 -19    1.12    1.02
  14   0 -19    0.45    0.83
  13   0 -19    2.24    1.00
  12   0 -19    2.09    0.93
  11   0 -19    0.77    0.82
  10   0 -19    0.13    0.75
   9   0 -19    0.39    0.71
   9   0 -19   -0.15    0.87
   8   0 -19   -0.50    0.92
   7   0 -19    0.06    0.96
   6   0 -19   -1.19    0.88
   5   0 -19   -0.77    0.83
   4   0 -19    0.22    1.04
   3   0 -19    0.33    1.00
   2   0 -19    0.15    1.21
   1   0 -19   -0.84    1.02
   0   0 -19   -0.17    1.13
  -1   0 -19    0.46    1.20
  -2   0 -19    0.50    1.26
  -3   0 -19   -0.31    1.07
  -4   0 -19   -0.49    1.10
  -5   0 -19    1.05    1.13
  15  -1 -19    1.67    0.96
  15   1 -19    1.57    1.00
  14  -1 -19    0.38    0.93
  14   1 -19    0.88    0.93
  13  -1 -19    2.72    0.97
  13   1 -19    1.61    0.98
  12  -1 -19    2.41    1.00
  12   1 -19    1.62    0.89
  11  -1 -19    4.14    1.01
  11   1 -19    3.16    0.92
  10  -1 -19    0.50    0.91
  10  -1 -19    3.77    0.96
  10   1 -19    1.63    0.88
   9  -1 -19   -0.58    0.88
   9   1 -19    0.57    0.65
   8  -1 -19    0.25    0.96
   8   1 -19   -0.34    0.94
   8   1 -19    1.57    0.71
   7  -1 -19    6.87    1.27
   7   1 -19    9.23    1.39
   6  -1 -19    5.32    1.26
   6   1 -19    6.05    1.30
   5  -1 -19    0.36    0.89
   5   1 -19    2.15    1.14
   4  -1 -19   -0.33    1.03
   4   1 -19    2.07    1.10
   3  -1 -19    2.09    1.17
   3   1 -19    0.99    1.10
   2  -1 -19   10.84    1.53
   2   1 -19   13.26    1.80
   1  -1 -19    2.04    1.14
   1   1 -19    3.23    1.26
   0  -1 -19   -1.59    1.11
   0   1 -19    3.00    1.35
  -1  -1 -19    0.88    1.27
  -1   1 -19   -1.45    1.01
  -2  -1 -19   -0.33    1.21
  -2   1 -19   -0.01    1.19
  -3  -1 -19    0.25    1.27
  -3   1 -19    1.06    1.14
  -4  -1 -19    1.33    1.33
  -4   1 -19    1.96    1.30
  -5  -1 -19    1.37    1.35
  -5   1 -19    1.03    1.35
  15  -2 -19    3.32    1.17
  14  -2 -19    2.71    1.08
  14   2 -19    1.72    1.08
  13  -2 -19    1.27    0.92
  13   2 -19    2.05    1.04
  12  -2 -19    1.96    0.95
  12   2 -19    0.33    0.81
  11  -2 -19    1.08    0.86
  11  -2 -19   -1.66    1.08
  11   2 -19    0.44    0.76
  10  -2 -19   -0.83    0.80
  10   2 -19    0.20    0.78
   9  -2 -19   -0.16    0.91
   9   2 -19    1.89    0.84
   8  -2 -19   -0.21    0.90
   8   2 -19    0.90    0.73
   7  -2 -19    0.07    0.98
   7   2 -19    0.38    0.96
   7   2 -19    1.05    0.71
   6  -2 -19   -0.42    0.84
   6   2 -19    0.87    1.05
   5  -2 -19    0.06    1.00
   5   2 -19   -1.00    1.06
   4  -2 -19   -0.44    0.88
   4   2 -19    0.63    1.17
   3  -2 -19   -0.04    0.95
   3   2 -19    1.86    1.23
   2  -2 -19    1.82    1.07
   2   2 -19    0.65    1.20
   1  -2 -19    1.44    1.18
   1   2 -19   -0.11    1.03
   0  -2 -19   -0.14    1.01
   0   2 -19   -0.25    1.04
  -1  -2 -19   -0.56    1.07
  -1   2 -19    0.55    1.23
  -2  -2 -19   -0.06    1.15
  -2   2 -19    0.40    1.10
  -3  -2 -19   -1.76    1.03
  -3   2 -19    0.48    1.12
  -4  -2 -19    0.55    1.15
  -4   2 -19    0.63    1.29
  -5  -2 -19   -0.06    1.36
  -5   2 -19    0.82    1.17
  15  -3 -19    4.26    1.23
  14  -3 -19    2.65    1.10
  14   3 -19    2.44    1.09
  13  -3 -19    2.45    1.01
  13   3 -19    2.33    1.07
  12   3 -19    3.59    1.03
  11  -3 -19    1.52    0.94
  11   3 -19    3.28    0.97
  10  -3 -19    0.97    0.98
  10   3 -19    3.25    1.02
   9  -3 -19   -1.46    0.82
   9   3 -19    0.25    0.74
   8  -3 -19   -0.53    0.86
   8   3 -19    0.85    0.76
   7  -3 -19    2.04    1.06
   7   3 -19    1.51    0.72
   6  -3 -19   -1.54    0.86
   6   3 -19   -0.58    0.98
   6   3 -19    1.20    0.71
   5  -3 -19    0.11    1.02
   5   3 -19    1.43    0.93
   5   3 -19    0.68    1.07
   4  -3 -19   -1.10    0.88
   4   3 -19    0.28    1.09
   3  -3 -19   -0.58    0.90
   3   3 -19    0.74    1.15
   2  -3 -19    3.17    1.17
   2   3 -19    4.33    1.27
   1   3 -19    2.79    1.20
   0  -3 -19    0.96    1.10
   0   3 -19    0.86    1.09
  -1  -3 -19   -0.57    1.09
  -1   3 -19   -0.60    0.95
  -2  -3 -19    2.50    1.38
  -2   3 -19    1.74    1.17
  -3  -3 -19    1.04    1.35
  -3   3 -19    2.01    1.37
  -4  -3 -19    4.51    1.45
  -4   3 -19    3.45    1.49
  -5  -3 -19    2.47    1.48
  -5   3 -19    0.69    1.22
  15  -4 -19    1.99    1.06
  14  -4 -19    1.91    1.00
  14   4 -19    0.91    0.95
  13   4 -19    1.77    1.02
  12  -4 -19    0.31    0.92
  12   4 -19    0.94    0.84
  11  -4 -19   -1.06    0.84
  11   4 -19    0.61    0.81
  10  -4 -19   -0.57    0.82
  10   4 -19    2.07    0.94
   9  -4 -19   -1.20    0.87
   9   4 -19    1.30    0.88
   8  -4 -19    0.61    0.96
   8   4 -19    1.54    0.81
   7  -4 -19    1.59    1.03
   7   4 -19    2.93    0.92
   6  -4 -19    1.00    0.92
   6   4 -19    1.44    0.79
   5  -4 -19    0.58    1.06
   5   4 -19    2.08    0.86
   5   4 -19    1.63    1.09
   4  -4 -19   -1.70    0.95
   4   4 -19    0.31    1.01
   4   4 -19    0.98    0.87
   3  -4 -19    0.02    1.08
   3   4 -19    1.30    1.12
   2  -4 -19    0.29    1.12
   2   4 -19    0.25    1.08
   1  -4 -19    0.00    1.15
   1   4 -19    0.11    1.17
   0  -4 -19    1.32    1.25
   0   4 -19    2.50    1.15
  -1  -4 -19    0.90    1.17
  -1   4 -19    2.10    1.19
  -2  -4 -19   -1.41    1.21
  -2   4 -19   -0.66    1.13
  -3  -4 -19   -1.82    1.22
  -3   4 -19    0.15    1.23
  -4  -4 -19   -0.71    1.17
  -4   4 -19    2.31    1.36
  13  -5 -19   -0.72    0.89
  13   5 -19    2.83    1.11
  12  -5 -19   -1.12    0.86
  12   5 -19    1.46    0.90
  11  -5 -19    0.53    0.95
  11   5 -19    1.34    0.83
  10  -5 -19    0.70    0.92
  10   5 -19    1.86    0.93
   9  -5 -19   -0.97    0.89
   9   5 -19    1.58    0.86
   8  -5 -19   -1.13    0.85
   8   5 -19    0.45    0.78
   7  -5 -19    0.55    1.01
   7   5 -19    1.30    0.82
   6  -5 -19   -0.06    0.86
   6   5 -19   -0.23    0.73
   5  -5 -19   -0.38    1.00
   5   5 -19   -0.07    0.73
   5   5 -19   -0.08    1.19
   4  -5 -19   -0.32    0.91
   4   5 -19    1.15    1.08
   4   5 -19    0.38    0.73
   3  -5 -19    1.37    1.04
   3   5 -19   -0.80    1.03
   3   5 -19    0.57    0.91
   2  -5 -19    1.63    1.10
   2   5 -19    2.19    1.16
   1  -5 -19   -0.60    1.11
   1   5 -19    2.51    1.17
   0  -5 -19   -2.09    1.11
   0   5 -19   -0.33    1.15
  -1  -5 -19   -2.13    0.95
  -1   5 -19    0.81    1.17
  -2  -5 -19   -0.17    1.29
  -2   5 -19    0.41    1.23
  -3  -5 -19    2.19    1.33
  -3   5 -19    2.26    1.22
  -4  -5 -19   -0.76    1.33
  -4   5 -19    3.56    1.38
  14  -6 -19   -0.43    1.03
  13  -6 -19   -0.61    0.88
  12  -6 -19   -1.26    0.84
  12   6 -19    1.72    1.01
  11  -6 -19   -0.05    0.81
  11   6 -19    1.20    0.91
  10  -6 -19   -0.47    0.88
  10   6 -19    1.03    0.83
   9  -6 -19   -0.39    0.87
   9   6 -19    0.80    0.78
   8  -6 -19    0.83    1.02
   8   6 -19    2.71    0.97
   7  -6 -19   -0.55    0.94
   7   6 -19    1.17    0.79
   6  -6 -19    0.82    0.91
   6   6 -19    1.65    0.85
   5  -6 -19    2.15    1.15
   5   6 -19    1.39    0.81
   4  -6 -19    5.76    1.35
   4   6 -19    5.32    1.30
   4   6 -19    4.70    1.09
   3  -6 -19    4.34    1.35
   3   6 -19    6.39    1.16
   3   6 -19    7.15    1.39
   2  -6 -19    3.86    1.34
   2   6 -19    4.61    1.35
   2   6 -19    4.88    1.42
   1  -6 -19    0.30    1.17
   1   6 -19    2.20    1.25
   0  -6 -19    0.98    1.13
   0   6 -19    3.82    1.38
  -1  -6 -19   -0.40    1.25
  -1   6 -19    2.01    1.17
  -2  -6 -19    0.01    1.21
  -2   6 -19    0.52    1.06
  -3  -6 -19    1.31    1.43
  -3   6 -19    0.55    1.22
  13  -7 -19    0.21    0.93
  12  -7 -19    0.19    0.91
  12   7 -19    0.81    1.55
  11  -7 -19    1.24    1.00
  11   7 -19    4.41    1.16
  10  -7 -19   -0.26    0.83
  10   7 -19    1.29    0.85
   9  -7 -19   -0.29    0.92
   9   7 -19    1.71    0.95
   8  -7 -19    0.36    0.99
   8   7 -19    1.80    0.97
   7  -7 -19    0.05    1.00
   7   7 -19    1.91    0.95
   6  -7 -19    0.75    1.05
   6   7 -19    2.59    0.91
   5  -7 -19   -0.43    0.88
   5   7 -19    0.76    0.80
   4  -7 -19   -2.06    0.79
   4   7 -19   -0.54    0.72
   3  -7 -19   -0.52    0.95
   3   7 -19    3.32    1.12
   3   7 -19    0.29    0.73
   2  -7 -19   -0.48    1.02
   2   7 -19    2.25    1.15
   2   7 -19   -0.08    0.81
   1  -7 -19   -1.68    0.96
   1   7 -19    1.59    1.17
   0  -7 -19   -0.70    1.22
   0   7 -19    2.55    1.16
  -1  -7 -19    0.25    1.17
  -1   7 -19    2.47    1.20
  -2  -7 -19   -0.30    1.32
  -2  -7 -19    2.21    0.60
  -2   7 -19    1.27    1.14
  -3  -7 -19    0.62    1.28
  -3   7 -19    2.08    1.34
  12  -8 -19    0.61    1.06
  11  -8 -19   -1.21    0.87
  10  -8 -19   -0.73    0.94
  10   8 -19    0.94    0.91
   9  -8 -19    0.28    0.87
   9   8 -19    1.16    0.84
   8  -8 -19   -0.79    0.96
   8   8 -19    1.77    0.92
   7  -8 -19    0.61    1.05
   7   8 -19    0.57    0.65
   6  -8 -19   -0.91    0.88
   6   8 -19    0.00    0.59
   5  -8 -19   -0.33    0.99
   5   8 -19    1.16    0.75
   4  -8 -19    1.08    1.06
   4   8 -19    2.87    1.05
   3  -8 -19   -1.01    0.95
   3   8 -19    0.58    0.78
   2  -8 -19    0.57    1.11
   2   8 -19    2.55    1.13
   2   8 -19   -0.78    0.77
   1  -8 -19   -0.04    1.10
   1   8 -19    0.16    0.88
   1   8 -19    0.14    0.97
   0  -8 -19   -0.23    1.30
   0   8 -19   -0.24    1.12
  -1  -8 -19   -1.16    1.09
  -1   8 -19    2.31    1.15
  -2  -8 -19   -0.38    1.34
  -2   8 -19    3.01    1.21
  11  -9 -19    1.33    0.98
  10  -9 -19   -0.17    0.91
   9  -9 -19   -0.30    1.02
   9   9 -19    1.03    1.09
   8  -9 -19    0.39    0.93
   8   9 -19    0.34    0.52
   7  -9 -19   -0.52    0.90
   7   9 -19    0.34    0.54
   6  -9 -19   -0.03    0.96
   6   9 -19    0.14    0.50
   5  -9 -19   -1.08    1.06
   5   9 -19    0.23    0.74
   4  -9 -19    0.24    1.01
   4   9 -19    0.22    0.80
   3  -9 -19   -0.59    1.01
   3   9 -19    0.88    0.93
   2  -9 -19   -1.09    1.00
   2   9 -19    0.26    0.96
   1  -9 -19   -0.84    1.23
   1   9 -19    0.69    0.97
   1   9 -19    1.77    1.09
   0  -9 -19   -2.21    1.21
   0   9 -19    1.30    1.06
   0   9 -19    0.22    0.91
   9 -10 -19    0.60    1.13
   8 -10 -19   -1.61    0.85
   7 -10 -19   -1.82    0.89
   6 -10 -19   -0.39    0.99
   6  10 -19    0.16    0.97
   5 -10 -19   -0.72    1.18
   5  10 -19    0.44    0.88
   4 -10 -19    0.98    1.12
   4  10 -19    0.96    0.93
   3 -10 -19   -1.21    1.16
   3  10 -19    1.35    0.99
   2 -10 -19   -0.42    1.24
   2  10 -19    0.31    1.02
   1 -10 -19   -0.83    1.25
  15   0 -20    2.26    1.77
  14   0 -20    2.44    1.10
  13   0 -20    2.87    1.07
  12   0 -20    1.55    0.89
  11   0 -20    1.77    0.84
  10   0 -20    1.47    0.97
   9   0 -20   -1.50    0.93
   8   0 -20    0.06    0.98
   7   0 -20    0.56    1.08
   6   0 -20   -1.28    0.98
   5   0 -20   -0.41    1.06
   4   0 -20   -1.36    0.93
   3   0 -20   24.54    2.03
   2   0 -20    2.28    1.37
   1   0 -20   -0.03    1.12
   0   0 -20    0.89    1.34
  -1   0 -20    1.58    1.22
  -2   0 -20    0.87    1.20
  -3   0 -20    0.50    1.34
  -4   0 -20    0.34    1.19
  15  -1 -20    2.70    1.14
  14  -1 -20    1.59    1.01
  14   1 -20    1.71    1.06
  13  -1 -20    3.07    1.03
  13   1 -20    1.58    0.89
  12  -1 -20    1.36    0.90
  12   1 -20    1.33    0.91
  11   1 -20    0.50    0.82
  10  -1 -20    1.27    1.40
  10   1 -20    1.37    0.81
   9  -1 -20   -0.99    0.90
   9   1 -20    1.28    0.77
   8  -1 -20   -1.36    0.93
   8   1 -20   -2.66    0.90
   7  -1 -20    0.51    1.08
   7   1 -20    0.44    1.01
   6  -1 -20   -0.02    1.05
   6   1 -20    0.12    0.99
   5  -1 -20   -0.01    0.98
   5   1 -20   -0.43    1.02
   4  -1 -20    0.75    0.99
   4   1 -20    0.67    1.10
   3  -1 -20    0.57    1.15
   3   1 -20    2.54    1.23
   2  -1 -20    0.43    1.05
   2   1 -20    0.69    1.31
   1  -1 -20   -0.39    1.11
   1   1 -20    0.46    1.25
   0  -1 -20    0.33    1.29
   0   1 -20    0.62    1.16
  -1  -1 -20   -1.25    1.24
  -1   1 -20   -0.22    1.28
  -2  -1 -20   -0.02    1.16
  -2   1 -20   -0.54    1.19
  -3  -1 -20    0.60    1.19
  -3   1 -20   -0.19    1.14
  -4  -1 -20   -0.88    1.14
  -4   1 -20    1.06    1.30
  15  -2 -20    2.65    1.02
  14  -2 -20    2.91    1.09
  14   2 -20    2.16    1.05
  13  -2 -20    2.51    0.99
  13   2 -20    0.79    0.96
  12   2 -20    2.78    1.04
  11   2 -20    1.59    0.91
  10  -2 -20   -0.82    0.89
  10   2 -20    0.41    0.77
   9  -2 -20    0.69    0.99
   9   2 -20    1.85    0.84
   8  -2 -20    4.06    1.12
   8   2 -20    6.40    1.07
   7  -2 -20    2.52    1.07
   7   2 -20    3.75    1.21
   6  -2 -20    0.35    0.99
   6   2 -20    1.00    1.14
   5  -2 -20    0.42    1.10
   5   2 -20   -1.04    1.11
   4  -2 -20    0.55    1.02
   4   2 -20   -0.19    1.22
   3  -2 -20    3.05    1.30
   3   2 -20    3.80    1.35
   2  -2 -20    0.10    1.02
   2   2 -20    1.83    1.19
   1  -2 -20   -0.62    1.02
   1   2 -20    0.91    1.30
   0  -2 -20   -0.44    1.13
   0   2 -20    0.28    1.32
  -1  -2 -20   -1.27    1.23
  -1   2 -20   -0.25    1.25
  -2  -2 -20   -0.45    1.29
  -2   2 -20    0.42    1.15
  -3  -2 -20    3.58    1.55
  -3   2 -20    2.69    1.32
  -4  -2 -20    1.75    1.47
  -4   2 -20    2.87    1.51
  14   3 -20    0.88    1.10
  13   3 -20    2.80    1.08
  12   3 -20    1.50    0.84
  11  -3 -20   -0.48    0.79
  11   3 -20    0.63    0.87
  10  -3 -20   -0.34    0.94
  10   3 -20    1.76    0.85
   9  -3 -20   -1.17    0.79
   9   3 -20    2.81    0.87
   8  -3 -20    0.00    0.96
   8   3 -20    2.14    0.79
   7  -3 -20   -0.19    0.90
   7   3 -20    2.01    0.81
   6  -3 -20   -1.04    0.86
   6   3 -20   -0.16    1.01
   5  -3 -20   -1.25    1.02
   5   3 -20   -0.06    1.17
   4  -3 -20    0.49    1.01
   4   3 -20    1.61    1.11
   3  -3 -20    0.26    1.15
   3   3 -20   -0.31    1.13
   2  -3 -20   -1.13    1.12
   2   3 -20    0.17    1.24
   1  -3 -20    0.81    1.23
   1   3 -20    1.36    1.15
   0  -3 -20   -0.24    1.23
   0   3 -20    2.31    1.23
  -1  -3 -20   -0.02    1.33
  -1   3 -20    1.14    1.16
  -2  -3 -20    0.69    1.40
  -2   3 -20    0.09    1.14
  -3  -3 -20   -0.44    1.35
  -3   3 -20    0.55    1.19
  13   4 -20   -0.09    0.81
  12  -4 -20   -0.96    0.91
  12   4 -20    2.47    1.00
  11  -4 -20   -1.08    0.90
  11   4 -20    0.75    0.77
  10  -4 -20   -0.78    0.88
  10   4 -20    1.66    0.90
   9  -4 -20   -0.53    0.96
   9   4 -20    0.96    0.81
   8  -4 -20    0.23    1.00
   8   4 -20    2.42    0.90
   7  -4 -20    0.70    1.04
   7   4 -20    1.67    0.84
   6  -4 -20   -0.60    1.02
   6   4 -20    0.99    0.79
   5  -4 -20   -0.43    0.96
   5   4 -20   -0.71    1.02
   4  -4 -20   -1.25    1.07
   4   4 -20    0.18    1.02
   3  -4 -20   -0.92    0.94
   3   4 -20    0.32    1.20
   2  -4 -20   -0.80    0.98
   2   4 -20    0.69    1.20
   1  -4 -20   -1.10    1.03
   1   4 -20   -0.02    1.18
   0  -4 -20    0.28    1.12
   0   4 -20    0.02    1.04
  -1  -4 -20    0.12    1.16
  -1   4 -20    0.70    1.27
  -2  -4 -20   -0.21    1.35
  -2   4 -20    1.85    1.40
  -3  -4 -20    3.05    1.57
  -3   4 -20    4.58    1.60
  13  -5 -20   -0.57    0.94
  12  -5 -20   -0.62    0.97
  12   5 -20    2.14    1.06
  11  -5 -20    0.58    1.03
  11   5 -20    1.15    0.88
  10  -5 -20   -1.94    0.88
  10   5 -20    1.72    0.85
   9  -5 -20   -0.86    0.97
   9   5 -20    1.26    0.86
   8  -5 -20   -0.86    0.80
   8   5 -20    0.06    0.75
   7  -5 -20   -0.01    0.91
   6  -5 -20   -0.82    1.02
   6   5 -20    0.69    0.79
   5  -5 -20   -0.01    0.98
   5   5 -20    1.10    0.80
   4  -5 -20   -0.59    1.09
   4   5 -20    1.28    0.99
   3  -5 -20   -0.42    1.01
   3   5 -20    0.02    0.94
   2  -5 -20   -0.27    1.06
   2   5 -20    0.19    1.14
   1  -5 -20    0.37    1.10
   1   5 -20    1.58    1.25
   0  -5 -20   -0.23    1.11
   0   5 -20    0.30    1.07
  -1  -5 -20   -1.84    1.26
  -1   5 -20    2.17    1.39
  -2  -5 -20   -1.43    1.30
  -2   5 -20    1.74    1.21
  -3  -5 -20    0.17    1.28
  -3   5 -20    4.81    1.50
  13  -6 -20   -0.93    0.88
  12  -6 -20   -1.11    0.89
  12   6 -20    2.81    1.20
  11  -6 -20   -0.45    0.92
  11   6 -20    1.41    0.92
  10  -6 -20   -0.31    0.87
  10   6 -20    1.89    0.90
   9  -6 -20   -0.26    1.00
   9   6 -20    1.21    0.85
   8  -6 -20    0.03    1.06
   8   6 -20    2.16    0.89
   7  -6 -20   -0.34    1.03
   7   6 -20    1.20    0.88
   6  -6 -20   -0.46    1.05
   6   6 -20    0.42    0.71
   5  -6 -20   -0.79    0.98
   5   6 -20    1.71    0.92
   4  -6 -20   -0.62    1.10
   4   6 -20    0.75    0.90
   3  -6 -20    2.37    1.32
   3   6 -20    1.98    1.24
   2  -6 -20    1.15    1.26
   2   6 -20    2.88    1.24
   1  -6 -20   -0.80    1.22
   1   6 -20    1.05    1.17
   0  -6 -20    1.52    1.41
   0   6 -20    0.86    1.08
  -1  -6 -20   -2.19    1.19
  -1   6 -20    0.18    1.09
  -2  -6 -20   -1.21    1.16
  -2   6 -20    1.98    1.36
  12  -7 -20   -0.67    0.95
  11  -7 -20    0.52    1.05
  11   7 -20    1.88    1.10
  10  -7 -20    1.49    1.03
  10   7 -20    2.56    1.07
   9  -7 -20   -1.21    1.02
   9   7 -20    1.11    0.83
   8  -7 -20    0.96    1.01
   8   7 -20    1.49    0.95
   7  -7 -20   -1.08    0.90
   7   7 -20   -0.76    0.64
   6  -7 -20   -0.02    1.09
   6   7 -20    1.04    0.86
   5  -7 -20    2.28    1.24
   5   7 -20    1.84    0.83
   4  -7 -20   -1.00    1.09
   4   7 -20    2.49    0.99
   3  -7 -20    1.04    1.10
   3   7 -20    1.66    1.67
   3   7 -20    0.51    0.88
   2  -7 -20   -1.06    1.05
   2   7 -20    0.98    1.10
   1  -7 -20   -1.13    1.07
   1   7 -20    1.30    1.20
   0  -7 -20    1.12    1.25
   0   7 -20    4.64    1.36
  -1  -7 -20   -1.00    1.35
  -1   7 -20    3.07    1.29
  11  -8 -20   -0.16    0.90
  10  -8 -20   -0.91    0.98
   9  -8 -20   -0.63    1.07
   9   8 -20    0.87    0.98
   8  -8 -20   -0.81    1.04
   8   8 -20    0.51    0.68
   7  -8 -20   -0.35    1.10
   7   8 -20    1.35    0.80
   6  -8 -20   -0.81    1.07
   6   8 -20    1.01    0.82
   5  -8 -20   -1.62    1.02
   5   8 -20    0.06    0.85
   4  -8 -20   -1.02    1.15
   4   8 -20    0.57    0.87
   3  -8 -20   -1.68    0.99
   3   8 -20    0.84    0.94
   2  -8 -20   -1.08    1.06
   2   8 -20    0.81    0.88
   2   8 -20    1.31    1.33
   1  -8 -20    0.54    1.23
   1   8 -20    1.06    1.09
   0  -8 -20   -0.85    1.17
   0   8 -20    0.83    1.17
   9  -9 -20   -1.03    1.02
   8  -9 -20   -0.93    0.93
   7  -9 -20   -1.27    1.09
   7   9 -20   -0.28    0.55
   6  -9 -20   -0.66    1.03
   6   9 -20    0.62    0.70
   5  -9 -20    0.79    1.10
   5   9 -20    1.48    0.90
   4  -9 -20    0.05    1.27
   4   9 -20    1.43    0.92
   3  -9 -20   -0.75    1.28
   3   9 -20   -0.22    0.91
   2  -9 -20   -0.25    1.19
   2   9 -20   -0.34    0.97
  14   0 -21    2.17    1.05
  13   0 -21    2.39    1.00
  12   0 -21    1.12    0.91
   9   0 -21   -1.40    1.32
   8   0 -21   -0.55    1.06
   7   0 -21   -1.90    1.02
   6   0 -21   -1.29    0.88
   5   0 -21   -0.32    0.99
   4   0 -21    0.43    1.10
   3   0 -21    0.97    1.38
   2   0 -21   -0.18    1.29
   1   0 -21    0.19    1.22
   0   0 -21   -0.93    1.34
  -1   0 -21    0.01    1.21
  -2   0 -21   -0.89    1.34
  -3   0 -21   -0.31    1.23
  14  -1 -21    0.57    0.95
  14   1 -21    1.50    0.90
  13   1 -21    3.04    1.12
  12   1 -21    2.87    1.00
  11   1 -21    1.80    0.94
   9  -1 -21    1.51    1.11
   8  -1 -21    1.56    1.17
   8   1 -21    1.76    1.15
   7  -1 -21    0.74    1.15
   7   1 -21   -0.80    1.04
   6  -1 -21    0.21    1.14
   6   1 -21   -0.04    1.13
   5  -1 -21   -0.58    1.14
   5   1 -21   -0.48    1.08
   4  -1 -21    7.01    1.55
   4   1 -21    7.80    1.55
   3  -1 -21    2.32    1.22
   3   1 -21    2.82    1.30
   2  -1 -21    2.07    1.41
   2   1 -21    0.14    1.16
   1  -1 -21   -0.42    1.18
   1   1 -21    0.05    1.11
   0  -1 -21    0.16    1.39
   0   1 -21    0.82    1.38
  -1  -1 -21   -0.59    1.15
  -1   1 -21   -0.16    1.25
  -2  -1 -21    1.00    1.35
  -2   1 -21    1.79    1.29
  -3  -1 -21    1.78    1.49
  -3   1 -21    2.52    1.51
  13   2 -21    1.06    0.92
  12   2 -21    0.82    0.93
  11   2 -21    0.81    0.76
  10  -2 -21   -1.29    0.93
  10   2 -21    1.22    0.83
   9  -2 -21   -1.65    0.98
   8  -2 -21   -1.08    1.01
   7  -2 -21   -1.59    0.88
   7   2 -21   -1.51    1.11
   6  -2 -21    0.17    1.01
   6   2 -21   -0.93    1.16
   5  -2 -21    1.05    1.18
   5   2 -21   -0.83    1.25
   4  -2 -21    1.09    1.26
   4   2 -21    1.09    1.19
   3  -2 -21   -0.79    1.00
   3   2 -21    1.12    1.26
   2  -2 -21    0.88    1.31
   2   2 -21    0.87    1.30
   1  -2 -21    0.23    1.21
   1   2 -21    1.36    1.32
   0  -2 -21    1.26    1.30
   0   2 -21    1.23    1.31
  -1  -2 -21    0.99    1.44
  -1   2 -21    1.23    1.33
  -2  -2 -21    0.78    1.44
  -2   2 -21    1.89    1.30
  13   3 -21    1.50    1.04
  12   3 -21    1.84    0.98
  11  -3 -21   -0.88    0.95
  11   3 -21    1.39    0.93
  10  -3 -21   -1.66    0.81
  10   3 -21    1.30    0.84
   9  -3 -21    2.32    1.19
   9   3 -21    4.45    1.01
   8  -3 -21    0.18    1.08
   7  -3 -21   -0.61    0.93
   6  -3 -21   -0.33    1.09
   6   3 -21    1.44    1.24
   5  -3 -21   -0.01    1.17
   5   3 -21    1.71    1.14
   4  -3 -21    1.64    1.14
   4   3 -21    2.29    1.35
   3  -3 -21    1.19    1.28
   3   3 -21    1.74    1.22
   2  -3 -21    1.19    1.16
   2   3 -21   -0.18    1.25
   1  -3 -21   -1.03    1.17
   1   3 -21    1.11    1.37
   0  -3 -21    0.92    1.46
   0   3 -21    0.48    1.15
  -1  -3 -21    0.92    1.45
  -1   3 -21    2.07    1.27
  -2  -3 -21    0.31    1.50
  -2   3 -21    1.62    1.28
  12  -4 -21   -1.38    0.98
  12   4 -21    0.70    0.90
  11  -4 -21   -1.81    0.97
  11   4 -21    1.38    0.79
  10  -4 -21   -0.61    1.00
  10   4 -21    1.65    0.92
   9  -4 -21   -0.99    0.89
   9   4 -21    1.33    0.84
   8  -4 -21   -0.90    1.02
   8   4 -21    1.95    0.90
   7  -4 -21   -0.03    1.12
   7   4 -21    1.49    1.21
   6  -4 -21    0.26    1.11
   5  -4 -21   -0.18    1.02
   5   4 -21    0.14    1.07
   4  -4 -21   -1.34    1.12
   4   4 -21    0.98    1.12
   3  -4 -21   -1.11    1.00
   3   4 -21    0.51    1.25
   2  -4 -21   -0.90    1.07
   2   4 -21    2.06    1.30
   1  -4 -21    0.30    1.31
   1   4 -21   -0.12    1.24
   0  -4 -21    1.90    1.47
   0   4 -21    0.15    1.18
  -1  -4 -21    0.20    1.44
  -1   4 -21    2.15    1.42
  -2  -4 -21    0.04    1.48
  -2   4 -21    2.13    1.30
  12  -5 -21   -1.33    0.97
  12   5 -21    2.02    1.04
  11  -5 -21   -1.93    0.97
  11   5 -21    1.48    0.93
  10  -5 -21   -1.99    0.95
  10   5 -21    1.75    0.87
   9  -5 -21   -0.37    0.92
   9   5 -21    2.49    0.94
   8  -5 -21   -0.10    1.08
   8   5 -21    1.25    0.86
   7  -5 -21    1.02    1.15
   7   5 -21    0.44    0.81
   6  -5 -21   -1.09    1.07
   6   5 -21   -0.17    1.08
   5  -5 -21   -0.43    1.03
   4  -5 -21   -1.57    1.15
   4   5 -21    2.00    1.12
   3  -5 -21    0.71    1.15
   3   5 -21    1.55    1.18
   2  -5 -21   -0.48    1.12
   2   5 -21    1.88    1.19
   1  -5 -21    0.56    1.34
   1   5 -21    4.44    1.51
   0  -5 -21    0.50    1.42
   0   5 -21    4.21    1.51
  -1  -5 -21    2.67    1.59
  -1   5 -21    2.17    1.27
  12  -6 -21   -1.32    0.99
  11  -6 -21   -1.98    0.96
  11   6 -21    1.57    0.91
  10  -6 -21   -0.72    0.90
  10   6 -21    2.03    1.02
   9  -6 -21   -1.25    1.03
   9   6 -21    0.97    0.91
   8  -6 -21   -1.55    0.88
   8   6 -21    0.70    0.88
   7  -6 -21   -0.11    1.00
   7   6 -21    1.27    0.90
   6  -6 -21    1.18    1.11
   6   6 -21    0.87    0.88
   5  -6 -21   -0.60    1.21
   5   6 -21    0.44    1.27
   4  -6 -21   -0.69    1.06
   3  -6 -21    0.10    1.32
   3   6 -21    0.84    1.18
   2  -6 -21   -0.16    1.13
   2   6 -21    1.80    1.28
   1  -6 -21    0.75    1.26
   1   6 -21    2.26    1.36
   0  -6 -21    1.55    1.40
   0   6 -21    6.11    1.58
  11  -7 -21    0.08    1.11
  10  -7 -21   -1.02    1.04
  10   7 -21    2.53    1.61
   9  -7 -21   -0.59    0.97
   9   7 -21    1.76    1.00
   8  -7 -21   -1.41    0.91
   8   7 -21    0.25    0.87
   7  -7 -21   -1.65    1.01
   7   7 -21    1.92    0.92
   6  -7 -21   -1.33    0.99
   6   7 -21    0.60    0.85
   5  -7 -21   -0.44    1.08
   5   7 -21    0.91    0.95
   4  -7 -21    1.03    1.35
   3  -7 -21   -0.60    1.14
   2  -7 -21   -1.16    1.14
   2   7 -21    0.63    1.01
   1  -7 -21   -1.46    1.16
   1   7 -21    1.24    1.21
   9  -8 -21   -1.91    1.05
   8  -8 -21   -1.58    0.96
   8   8 -21   -0.39    0.89
   7  -8 -21    0.01    1.07
   7   8 -21    1.40    0.86
   6  -8 -21   -0.17    1.10
   6   8 -21    0.60    0.87
   5  -8 -21   -1.76    1.03
   5   8 -21    1.52    0.99
   4  -8 -21    0.16    1.29
   4   8 -21    0.63    0.93
   3  -8 -21   -0.80    1.13
   2  -8 -21   -1.09    1.16
   8   0 -22   -1.54    1.11
   7   0 -22   -0.85    0.99
   6   0 -22   -0.92    1.16
   5   0 -22    0.38    1.29
   4   0 -22   -0.22    1.37
   3   0 -22    3.67    1.57
   2   0 -22   -1.80    1.30
   1   0 -22    0.38    1.30
   0   0 -22    1.63    1.34
  -1   0 -22    1.83    1.60
  13   1 -22    1.82    1.04
   9  -1 -22   -0.19    1.10
   8  -1 -22   -1.52    1.07
   8   1 -22   -2.07    1.44
   7  -1 -22   -0.25    1.17
   7   1 -22   -1.02    0.96
   6  -1 -22    1.38    1.15
   6   1 -22   -0.56    1.18
   5  -1 -22   -0.77    1.05
   5   1 -22   -0.14    1.33
   4  -1 -22    0.61    1.19
   4   1 -22    0.52    1.21
   3  -1 -22   -1.14    1.26
   3   1 -22   -0.17    1.26
   2  -1 -22   -0.54    1.36
   2   1 -22   -0.37    1.27
   1  -1 -22   -1.11    1.23
   1   1 -22    0.91    1.26
   0  -1 -22   -1.56    1.43
   0   1 -22    0.25    1.29
  -1  -1 -22    0.13    1.33
  -1   1 -22    0.26    1.26
  13   2 -22    1.90    0.91
  12   2 -22    1.01    0.80
  11   2 -22    3.26    1.45
  10  -2 -22   -0.47    1.14
   9  -2 -22   -0.81    1.07
   8  -2 -22   -0.51    1.17
   7  -2 -22   -1.38    0.97
   7   2 -22   -0.37    1.31
   6  -2 -22   -0.68    1.03
   6   2 -22   -0.35    1.18
   5  -2 -22    1.26    1.18
   5   2 -22    1.84    1.41
   4  -2 -22    0.37    1.27
   4   2 -22    2.26    1.41
   3  -2 -22   -0.88    1.20
   3   2 -22    0.34    1.35
   2  -2 -22   -0.47    1.16
   2   2 -22    0.80    1.41
   1  -2 -22    0.31    1.47
   1   2 -22    0.21    1.17
   0  -2 -22    0.45    1.37
   0   2 -22    2.36    1.36
  -1  -2 -22    1.15    1.52
  -1   2 -22    0.16    1.27
  12   3 -22    1.50    0.95
  11  -3 -22   -2.80    0.97
  11   3 -22    1.73    0.87
  10  -3 -22   -2.27    1.03
  10   3 -22    0.36    0.85
   9  -3 -22   -1.44    0.93
   8  -3 -22    0.13    1.17
   7  -3 -22   -0.96    1.14
   6  -3 -22   -0.55    1.19
   6   3 -22    0.65    1.29
   5  -3 -22   -1.92    1.14
   5   3 -22    0.23    1.25
   4  -3 -22   -1.59    1.20
   4   3 -22    0.27    1.17
   3  -3 -22   -1.67    1.01
   3   3 -22    0.83    1.37
   2  -3 -22   -1.19    1.28
   2   3 -22   -0.17    1.17
   1  -3 -22   -0.90    1.18
   1   3 -22   -0.11    1.29
   0  -3 -22    0.20    1.44
   0   3 -22    0.90    1.40
  12  -4 -22   -1.48    1.12
  12   4 -22    1.95    0.99
  11  -4 -22    1.10    1.14
  11   4 -22    0.33    0.72
  10  -4 -22   -0.84    1.08
  10   4 -22    1.57    0.87
   9  -4 -22   -2.63    0.98
   9   4 -22    3.09    0.99
   8  -4 -22   -1.39    0.94
   7  -4 -22   -0.26    1.07
   6  -4 -22   -1.76    0.96
   5  -4 -22   -0.68    1.05
   5   4 -22    1.86    1.29
   4  -4 -22    1.18    1.34
   4   4 -22    1.39    1.34
   3  -4 -22   -0.35    1.15
   3   4 -22   -0.48    1.25
   2  -4 -22   -0.99    1.32
   2   4 -22    2.37    1.26
   1  -4 -22   -0.71    1.20
   1   4 -22    1.90    1.40
   0  -4 -22   -0.26    1.40
   0   4 -22    1.78    1.36
  11  -5 -22   -1.35    0.88
  11   5 -22    1.72    0.96
  10  -5 -22   -1.17    0.93
  10   5 -22    1.68    0.86
   9  -5 -22   -0.81    1.12
   9   5 -22    0.91    0.82
   8  -5 -22    0.20    1.04
   8   5 -22    1.44    0.90
   7  -5 -22   -0.84    1.03
   6  -5 -22    0.69    1.17
   5  -5 -22   -0.55    1.12
   4  -5 -22   -2.11    1.19
   4   5 -22    1.79    1.25
   3  -5 -22    0.07    1.21
   3   5 -22    1.11    1.20
   2  -5 -22   -1.93    1.29
   2   5 -22    1.79    1.27
   1  -5 -22   -1.77    1.29
   1   5 -22    0.47    1.17
  10  -6 -22   -1.94    1.06
  10   6 -22    2.31    1.16
   9  -6 -22   -0.55    1.02
   9   6 -22    1.66    0.97
   8  -6 -22   -2.06    1.11
   8   6 -22    1.50    0.97
   7  -6 -22   -1.33    1.17
   7   6 -22    1.64    0.98
   6  -6 -22   -1.35    1.21
   5  -6 -22   -1.18    1.26
   4  -6 -22   -0.27    1.21
   3  -6 -22   -0.45    1.37
   3   6 -22    4.13    1.47
   2  -6 -22   -1.32    1.15
   2   6 -22    1.16    1.12
   8  -7 -22   -1.12    1.20
   8   7 -22    1.23    0.89
   7  -7 -22   -0.96    1.07
   7   7 -22    0.80    0.82
   6  -7 -22   -0.96    1.08
   6   7 -22    2.38    0.98
   5  -7 -22   -1.72    1.26
   4  -7 -22   -2.77    1.21
   8   0 -23   -2.74    1.07
   7   0 -23   -1.42    1.18
   6   0 -23    0.43    1.13
   5   0 -23   -1.57    1.18
   4   0 -23   -0.45    1.40
   3   0 -23    1.17    1.51
   2   0 -23   -0.13    1.50
   1   0 -23    0.36    1.50
   9  -1 -23   -1.69    1.15
   8  -1 -23   -1.96    1.16
   7  -1 -23    0.11    1.21
   7   1 -23   -1.90    1.18
   6  -1 -23    0.78    1.30
   6   1 -23    0.75    1.35
   5  -1 -23   -0.34    1.30
   5   1 -23   -0.89    1.39
   4  -1 -23   -0.47    1.31
   4   1 -23    0.46    1.28
   3  -1 -23   -1.45    1.38
   3   1 -23   -0.02    1.33
   2  -1 -23    1.08    1.52
   2   1 -23    0.23    1.45
   1  -1 -23    0.28    1.37
   1   1 -23    1.19    1.51
  10  -2 -23   -0.34    1.21
   9  -2 -23   -1.07    1.02
   8  -2 -23   -1.20    1.17
   7  -2 -23   -1.20    1.05
   6  -2 -23   -1.47    1.06
   6   2 -23   -0.17    1.31
   5  -2 -23   -0.80    1.25
   5   2 -23   -0.90    1.36
   4  -2 -23   -0.22    1.32
   4   2 -23   -0.87    1.32
   3  -2 -23   -1.44    1.15
   3   2 -23    1.04    1.44
   2  -2 -23   -0.57    1.26
   2   2 -23    0.81    1.31
   1  -2 -23   -2.08    1.41
   1   2 -23   -0.34    1.33
  11  -3 -23   -2.55    1.13
  10  -3 -23   -1.24    1.04
   9  -3 -23   -1.62    1.20
   8  -3 -23   -0.79    1.21
   7  -3 -23   -1.73    1.23
   6  -3 -23   -0.88    1.23
   6   3 -23    2.42    2.15
   5  -3 -23   -0.28    1.33
   5   3 -23    3.07    1.52
   4  -3 -23   -1.04    1.30
   4   3 -23    0.85    1.41
   3  -3 -23   -0.85    1.34
   3   3 -23    0.33    1.24
   2  -3 -23   -1.03    1.24
   2   3 -23    1.53    1.50
  10  -4 -23   -1.98    1.10
   9  -4 -23   -0.82    1.07
   8  -4 -23   -0.34    1.27
   7  -4 -23   -2.00    0.98
   6  -4 -23   -0.46    1.16
   5  -4 -23   -0.10    1.17
   5   4 -23    2.50    1.46
   4  -4 -23   -0.75    1.17
   4   4 -23    1.67    1.38
   3  -4 -23   -1.99    1.29
   3   4 -23    0.04    1.29
   2  -4 -23   -1.72    1.20
   2   4 -23   -0.34    1.14
   9  -5 -23   -1.53    1.04
   8  -5 -23   -2.09    1.18
   7  -5 -23   -1.21    1.27
   6  -5 -23   -0.42    1.18
   5  -5 -23   -0.49    1.17
   4  -5 -23   -0.65    1.36
   4   5 -23    0.97    1.18
   3   5 -23    2.10    1.35
   8   0 -24   -0.03    1.32
   7   0 -24   -0.76    1.27
   6   0 -24   -1.36    1.27
   5   0 -24   -0.30    1.27
   4   0 -24    1.39    1.44
   9  -1 -24   -1.36    1.21
   8  -1 -24   -1.93    1.26
   7  -1 -24   -0.65    1.31
   7   1 -24   -2.40    1.31
   6  -1 -24   -2.08    1.27
   6   1 -24   -0.17    1.26
   5  -1 -24   -0.13    1.22
   5   1 -24   -1.23    1.41
   4  -1 -24   -0.08    1.36
   4   1 -24    2.44    1.46
   9  -2 -24   -2.66    1.15
   8  -2 -24   -1.91    1.26
   7  -2 -24    0.04    1.21
   6  -2 -24    0.14    1.38
   6   2 -24    0.91    1.44
   5  -2 -24    0.13    1.40
   5   2 -24    1.00    1.32
   4  -2 -24   -0.51    1.41
   4   2 -24   -0.91    1.39
   8  -3 -24   -1.74    1.21
   7  -3 -24    0.06    1.40
   6  -3 -24    0.05    1.25
   5  -3 -24   -0.21    1.25
   5   3 -24   -0.34    1.23
   0   0   0    0.00    0.00
;
_shelx_hkl_checksum              96043
_olex2_submission_special_instructions 'No special instructions were received'
loop_
_space_group_symop_operation_xyz
'x, y, z'
'-x, y+1/2, -z+1/2'
'-x, -y, -z'
'x, -y-1/2, z-1/2'
loop_
_atom_site_label
_atom_site_type_symbol
_atom_site_fract_x
_atom_site_fract_y
_atom_site_fract_z
_atom_site_U_iso_or_equiv
_atom_site_adp_type
_atom_site_occupancy
_atom_site_site_symmetry_order
_atom_site_calc_flag
_atom_site_refinement_flags_posn
_atom_site_refinement_flags_adp
_atom_site_refinement_flags_occupancy
_atom_site_disorder_assembly
_atom_site_disorder_group
Co1 Co 0.10403(4) 0.02055(4) 0.11310(3) 0.0310(2) Uani 1 1 d . . . . .
O4 O -0.7383(2) 0.5188(2) -0.32051(17) 0.0468(8) Uani 1 1 d . . . . .
O1 O -0.0276(2) 0.09606(19) 0.10256(16) 0.0380(7) Uani 1 1 d . . . . .
N6 N 0.1549(3) -0.8406(2) 0.0742(2) 0.0380(9) Uani 1 1 d . . . . .
O5 O -0.8239(2) 0.4267(2) -0.26760(16) 0.0440(8) Uani 1 1 d . . . . .
O2 O -0.1089(2) 0.0474(2) -0.01739(17) 0.0472(8) Uani 1 1 d . . . . .
N1 N 0.0460(3) -0.1144(2) 0.1479(2) 0.0359(9) Uani 1 1 d . . . . .
C11 C -0.1775(3) 0.1846(3) 0.0290(2) 0.0295(10) Uani 1 1 d . . . . .
C1 C -0.7420(3) 0.4688(3) -0.2640(2) 0.0357(10) Uani 1 1 d . . . . .
O3 O -0.3755(2) 0.4292(2) -0.00287(18) 0.0647(11) Uani 1 1 d . . . . .
C2 C -0.6464(3) 0.4592(3) -0.1941(2) 0.0363(11) Uani 1 1 d . . . . .
C14 C -0.1001(3) 0.1028(3) 0.0384(2) 0.0284(9) Uani 1 1 d . . . . .
C21 C 0.1130(4) -0.5626(3) 0.0836(3) 0.0408(11) Uani 1 1 d . . . . .
C13 C -0.2276(3) 0.3424(3) 0.0712(2) 0.0450(12) Uani 1 1 d . . . . .
H13 H -0.2148 0.3939 0.1076 0.054 Uiso 1 1 calc R . . . .
C20 C 0.0567(4) -0.3934(3) 0.1226(3) 0.0396(11) Uani 1 1 d . . . . .
C17 C -0.0315(4) -0.2889(3) 0.1915(3) 0.0460(12) Uani 1 1 d . . . . .
H17 H -0.0575 -0.3471 0.2059 0.055 Uiso 1 1 calc R . . . .
N3 N 0.0475(4) -0.5644(3) 0.1195(3) 0.0794(16) Uani 1 1 d . . . A 1
C19 C 0.0653(3) -0.2070(3) 0.1274(2) 0.0351(10) Uani 1 1 d . . . . .
H19 H 0.1056 -0.2120 0.0974 0.042 Uiso 1 1 calc R . . . .
C23 C 0.1500(3) -0.6603(3) 0.0645(2) 0.0363(11) Uani 1 1 d . . . . .
C12 C -0.1605(3) 0.2618(3) 0.0829(2) 0.0382(11) Uani 1 1 d . . . . .
H12 H -0.1025 0.2591 0.1280 0.046 Uiso 1 1 calc R . . . .
N2 N 0.0174(4) -0.4768(3) 0.1394(3) 0.0801(16) Uani 1 1 d . . . . .
C18 C 0.0295(3) -0.2955(3) 0.1477(2) 0.0354(10) Uani 1 1 d . . . . .
C16 C -0.0531(4) -0.1943(3) 0.2133(3) 0.0512(13) Uani 1 1 d . . . . .
H16 H -0.0943 -0.1875 0.2426 0.061 Uiso 1 1 calc R . . . .
C24 C 0.2111(4) -0.6637(3) 0.0208(3) 0.0508(13) Uani 1 1 d . . . . .
H24 H 0.2298 -0.6042 0.0024 0.061 Uiso 1 1 calc R . . . .
C7 C -0.5601(4) 0.5145(4) -0.1869(3) 0.0594(14) Uani 1 1 d . . . . .
H7 H -0.5624 0.5603 -0.2255 0.071 Uiso 1 1 calc R . . . .
C8 C -0.3136(3) 0.3454(3) 0.0048(2) 0.0405(11) Uani 1 1 d . . . . .
C9 C -0.3339(3) 0.2690(3) -0.0492(3) 0.0436(12) Uani 1 1 d . . . . .
H9 H -0.3932 0.2708 -0.0934 0.052 Uiso 1 1 calc R . . . .
C5 C -0.4669(4) 0.4358(4) -0.0680(3) 0.0487(13) Uani 1 1 d . . . . .
C10 C -0.2652(3) 0.1898(3) -0.0370(2) 0.0394(11) Uani 1 1 d . . . . .
H10 H -0.2780 0.1388 -0.0738 0.047 Uiso 1 1 calc R . . . .
C15 C -0.0125(4) -0.1102(3) 0.1911(3) 0.0469(12) Uani 1 1 d . . . . .
H15 H -0.0264 -0.0469 0.2069 0.056 Uiso 1 1 calc R . . . .
N4 N 0.1454(4) -0.4791(3) 0.0616(3) 0.0861(17) Uani 1 1 d . . . . .
C6 C -0.4698(4) 0.5038(4) -0.1237(3) 0.0619(15) Uani 1 1 d . . . . .
H6 H -0.4120 0.5423 -0.1194 0.074 Uiso 1 1 calc R . . . .
C3 C -0.6421(4) 0.3930(4) -0.1359(3) 0.0491(13) Uani 1 1 d . . . . .
H3 H -0.7006 0.3564 -0.1390 0.059 Uiso 1 1 calc R . . . .
N5 N 0.1162(4) -0.3930(3) 0.0817(3) 0.0794(16) Uani 1 1 d . . . . .
C26 C 0.2139(4) -0.8417(3) 0.0326(3) 0.0548(14) Uani 1 1 d . . . . .
H26 H 0.2364 -0.9041 0.0215 0.066 Uiso 1 1 calc R . . . .
C25 C 0.2438(4) -0.7556(4) 0.0048(3) 0.0631(15) Uani 1 1 d . . . . .
H25 H 0.2855 -0.7599 -0.0243 0.076 Uiso 1 1 calc R . . . .
C4 C -0.5511(4) 0.3801(4) -0.0724(3) 0.0529(13) Uani 1 1 d . . . . .
H4 H -0.5479 0.3342 -0.0336 0.063 Uiso 1 1 calc R . . . .
C22 C 0.1246(3) -0.7499(3) 0.0898(2) 0.0358(10) Uani 1 1 d . . . . .
H22 H 0.0838 -0.7475 0.1196 0.043 Uiso 1 1 calc R . . . .
O6 O -0.4846(4) -0.1934(5) -0.0623(3) 0.134(2) Uani 1 1 d . . . . .
N7 N -0.5788(5) -0.2120(4) -0.1888(4) 0.0918(17) Uani 1 1 d . . . . .
C29 C -0.5642(6) -0.2101(6) -0.1162(5) 0.116(3) Uani 1 1 d . . . . .
H29 H -0.6218 -0.2231 -0.1037 0.140 Uiso 1 1 calc R . . . .
C27 C -0.6780(7) -0.2305(6) -0.2478(5) 0.159(4) Uani 1 1 d . . . . .
H27A H -0.6731 -0.2869 -0.2789 0.239 Uiso 1 1 calc GR . . . .
H27B H -0.6998 -0.1713 -0.2797 0.239 Uiso 1 1 calc GR . . . .
H27C H -0.7272 -0.2457 -0.2244 0.239 Uiso 1 1 calc GR . . . .
C28 C -0.4905(8) -0.1991(8) -0.2108(6) 0.184(5) Uani 1 1 d . . . . .
H28A H -0.4413 -0.1554 -0.1744 0.276 Uiso 1 1 calc GR . . . .
H28B H -0.5119 -0.1694 -0.2612 0.276 Uiso 1 1 calc GR . . . .
H28C H -0.4594 -0.2639 -0.2114 0.276 Uiso 1 1 calc GR . . . .
N8 N -0.3646(9) -0.0435(8) 0.1481(6) 0.098(3) Uani 0.687(11) 1 d D U P B 2
C31 C -0.4715(11) -0.0706(14) 0.1283(10) 0.167(6) Uani 0.687(11) 1 d D U P B 2
H31A H -0.5144 -0.0145 0.1029 0.250 Uiso 0.687(11) 1 calc GR . P B 2
H31B H -0.4838 -0.0870 0.1744 0.250 Uiso 0.687(11) 1 calc GR . P B 2
H31C H -0.4874 -0.1283 0.0946 0.250 Uiso 0.687(11) 1 calc GR . P B 2
C32 C -0.3303(12) -0.0240(10) 0.0868(9) 0.149(6) Uani 0.687(11) 1 d D U P B 2
H32A H -0.3446 -0.0817 0.0531 0.223 Uiso 0.687(11) 1 calc GR . P B 2
H32B H -0.2575 -0.0114 0.1072 0.223 Uiso 0.687(11) 1 calc GR . P B 2
H32C H -0.3655 0.0343 0.0585 0.223 Uiso 0.687(11) 1 calc GR . P B 2
O7 O -0.2245(11) -0.0176(11) 0.2533(8) 0.221(7) Uani 0.687(11) 1 d D U P B 2
C30 C -0.3097(14) -0.0424(14) 0.2203(10) 0.167(6) Uani 0.687(11) 1 d D U P B 2
H30 H -0.3436 -0.0655 0.2518 0.200 Uiso 0.687(11) 1 calc R . P B 2
O7A O -0.309(3) -0.047(3) 0.2759(13) 0.200(10) Uani 0.313(11) 1 d D U P B 1
C30A C -0.361(3) -0.105(2) 0.2177(16) 0.184(9) Uani 0.313(11) 1 d D U P B 1
H30A H -0.4006 -0.1597 0.2221 0.220 Uiso 0.313(11) 1 calc R . P B 1
N8A N -0.350(2) -0.078(3) 0.1480(14) 0.158(8) Uani 0.313(11) 1 d D U P B 1
C31A C -0.444(3) -0.072(4) 0.0834(17) 0.194(12) Uani 0.313(11) 1 d D U P B 1
H31D H -0.4692 -0.1395 0.0670 0.292 Uiso 0.313(11) 1 calc GR . P B 1
H31E H -0.4327 -0.0375 0.0421 0.292 Uiso 0.313(11) 1 calc GR . P B 1
H31F H -0.4945 -0.0359 0.0975 0.292 Uiso 0.313(11) 1 calc GR . P B 1
C32A C -0.264(2) -0.0014(19) 0.167(2) 0.133(8) Uani 0.313(11) 1 d D U P B 1
H32D H -0.2931 0.0657 0.1571 0.200 Uiso 0.313(11) 1 calc GR . P B 1
H32E H -0.2236 -0.0139 0.1366 0.200 Uiso 0.313(11) 1 calc GR . P B 1
H32F H -0.2218 -0.0070 0.2210 0.200 Uiso 0.313(11) 1 calc GR . P B 1
loop_
_atom_site_aniso_label
_atom_site_aniso_U_11
_atom_site_aniso_U_22
_atom_site_aniso_U_33
_atom_site_aniso_U_23
_atom_site_aniso_U_13
_atom_site_aniso_U_12
Co1 0.0303(3) 0.0177(3) 0.0386(4) -0.0027(3) 0.0048(2) 0.0048(2)
O4 0.0397(18) 0.0459(18) 0.0422(19) 0.0118(16) -0.0001(15) -0.0056(15)
O1 0.0339(17) 0.0329(16) 0.0380(19) 0.0012(13) 0.0024(14) 0.0110(13)
N6 0.045(2) 0.0216(18) 0.047(2) -0.0035(16) 0.0165(19) 0.0042(16)
O5 0.0323(18) 0.0451(18) 0.046(2) 0.0058(15) 0.0046(14) -0.0022(14)
O2 0.0463(19) 0.0420(18) 0.048(2) -0.0144(15) 0.0114(15) 0.0098(14)
N1 0.037(2) 0.0197(18) 0.044(2) -0.0037(15) 0.0060(18) 0.0019(15)
C11 0.026(2) 0.028(2) 0.031(2) -0.0012(18) 0.0060(19) 0.0040(17)
C1 0.032(3) 0.026(2) 0.044(3) 0.000(2) 0.007(2) 0.0050(19)
O3 0.052(2) 0.056(2) 0.058(2) -0.0209(17) -0.0130(17) 0.0325(17)
C2 0.032(2) 0.037(3) 0.037(3) 0.000(2) 0.008(2) 0.0042(19)
C14 0.029(2) 0.022(2) 0.035(3) 0.0005(19) 0.013(2) -0.0032(17)
C21 0.051(3) 0.025(2) 0.046(3) 0.003(2) 0.016(2) 0.000(2)
C13 0.039(3) 0.040(3) 0.040(3) -0.010(2) -0.004(2) 0.013(2)
C20 0.048(3) 0.020(2) 0.051(3) 0.003(2) 0.018(2) -0.001(2)
C17 0.058(3) 0.029(2) 0.053(3) 0.003(2) 0.024(3) -0.004(2)
N3 0.102(4) 0.019(2) 0.150(5) -0.007(3) 0.085(4) -0.003(2)
C19 0.040(3) 0.023(2) 0.045(3) 0.0010(19) 0.017(2) 0.0011(18)
C23 0.041(3) 0.022(2) 0.042(3) -0.0002(19) 0.011(2) 0.0024(19)
C12 0.031(2) 0.037(2) 0.036(3) -0.003(2) -0.0007(19) 0.0087(19)
N2 0.103(4) 0.025(2) 0.149(5) -0.006(3) 0.089(4) -0.004(2)
C18 0.040(3) 0.023(2) 0.042(3) -0.0005(19) 0.013(2) 0.0001(19)
C16 0.069(4) 0.040(3) 0.059(3) 0.005(2) 0.041(3) 0.004(2)
C24 0.064(3) 0.026(2) 0.066(4) 0.004(2) 0.028(3) -0.003(2)
C7 0.042(3) 0.059(3) 0.062(4) 0.012(3) 0.001(3) -0.004(3)
C8 0.033(3) 0.039(3) 0.041(3) -0.002(2) 0.005(2) 0.016(2)
C9 0.032(2) 0.045(3) 0.039(3) -0.007(2) -0.005(2) 0.014(2)
C5 0.038(3) 0.046(3) 0.046(3) -0.012(2) -0.003(2) 0.021(2)
C10 0.038(3) 0.033(2) 0.043(3) -0.012(2) 0.009(2) 0.0026(19)
C15 0.060(3) 0.033(3) 0.048(3) -0.006(2) 0.020(3) 0.008(2)
N4 0.155(5) 0.026(2) 0.127(4) 0.010(3) 0.111(4) 0.006(3)
C6 0.035(3) 0.068(4) 0.066(4) 0.008(3) 0.000(3) -0.001(2)
C3 0.041(3) 0.054(3) 0.050(3) 0.008(2) 0.013(2) 0.006(2)
N5 0.147(5) 0.017(2) 0.118(4) -0.002(2) 0.101(4) 0.001(2)
C26 0.062(3) 0.032(3) 0.083(4) 0.001(3) 0.042(3) 0.010(2)
C25 0.070(4) 0.046(3) 0.095(4) 0.007(3) 0.057(3) 0.005(3)
C4 0.054(3) 0.054(3) 0.041(3) 0.011(2) 0.006(3) 0.014(3)
C22 0.043(3) 0.022(2) 0.045(3) 0.0006(19) 0.019(2) 0.0017(18)
O6 0.107(4) 0.181(6) 0.086(4) 0.015(4) 0.002(3) -0.010(4)
N7 0.114(5) 0.084(4) 0.063(4) 0.009(3) 0.015(4) -0.004(3)
C29 0.094(6) 0.161(8) 0.081(6) 0.025(6) 0.017(5) -0.003(5)
C27 0.156(8) 0.132(8) 0.119(7) -0.018(6) -0.034(6) 0.004(6)
C28 0.196(11) 0.225(12) 0.178(10) -0.002(8) 0.123(9) -0.074(9)
N8 0.117(6) 0.083(6) 0.092(5) -0.011(4) 0.036(4) 0.006(5)
C31 0.154(9) 0.198(13) 0.163(12) -0.021(11) 0.076(8) -0.063(10)
C32 0.174(12) 0.154(11) 0.157(10) -0.022(9) 0.107(9) -0.011(9)
O7 0.198(10) 0.217(11) 0.172(10) -0.014(8) -0.022(8) 0.004(9)
C30 0.178(8) 0.171(9) 0.138(7) -0.002(8) 0.041(6) -0.006(8)
O7A 0.195(17) 0.264(18) 0.137(11) 0.019(12) 0.055(12) -0.016(14)
C30A 0.188(12) 0.190(12) 0.175(10) 0.006(8) 0.069(8) -0.012(9)
N8A 0.159(11) 0.157(12) 0.151(9) 0.000(8) 0.049(7) 0.009(8)
C31A 0.185(16) 0.190(19) 0.174(13) -0.018(16) 0.025(12) -0.021(15)
C32A 0.131(13) 0.121(14) 0.149(17) -0.005(12) 0.054(11) 0.037(10)
loop_
_atom_type_symbol
_atom_type_description
_atom_type_scat_dispersion_real
_atom_type_scat_dispersion_imag
_atom_type_scat_source
C C 0.0033 0.0016 'International Tables Vol C Tables 4.2.6.8 and 6.1.1.4'
H H 0.0000 0.0000 'International Tables Vol C Tables 4.2.6.8 and 6.1.1.4'
N N 0.0061 0.0033 'International Tables Vol C Tables 4.2.6.8 and 6.1.1.4'
O O 0.0106 0.0060 'International Tables Vol C Tables 4.2.6.8 and 6.1.1.4'
Co Co 0.3494 0.9721 'International Tables Vol C Tables 4.2.6.8 and 6.1.1.4'
loop_
_geom_angle_atom_site_label_1
_geom_angle_atom_site_label_2
_geom_angle_atom_site_label_3
_geom_angle
_geom_angle_site_symmetry_1
_geom_angle_site_symmetry_3
_geom_angle_publ_flag
O4 Co1 N6 90.31(12) 4_666 1_565 ?
O4 Co1 O5 60.04(11) 4_666 4_666 ?
O4 Co1 C1 30.15(12) 4_666 4_666 ?
O1 Co1 O4 150.30(12) . 4_666 ?
O1 Co1 N6 87.03(12) . 1_565 ?
O1 Co1 O5 90.33(11) . 4_666 ?
O1 Co1 N1 90.51(12) . . ?
O1 Co1 C1 120.18(13) . 4_666 ?
N6 Co1 O5 89.21(12) 1_565 4_666 ?
N6 Co1 C1 89.00(13) 1_565 4_666 ?
O5 Co1 C1 29.91(12) 4_666 4_666 ?
O2 Co1 O4 92.53(12) 3 4_666 ?
O2 Co1 O1 116.88(11) 3 . ?
O2 Co1 N6 87.65(13) 3 1_565 ?
O2 Co1 O5 152.38(12) 3 4_666 ?
O2 Co1 N1 92.11(13) 3 . ?
O2 Co1 C1 122.55(14) 3 4_666 ?
N1 Co1 O4 92.58(12) . 4_666 ?
N1 Co1 N6 177.11(12) . 1_565 ?
N1 Co1 O5 92.33(12) . 4_666 ?
N1 Co1 C1 93.55(13) . 4_666 ?
C1 O4 Co1 90.5(2) . 4_465 ?
C14 O1 Co1 120.8(3) . . ?
C26 N6 Co1 122.2(3) . 1_545 ?
C26 N6 C22 116.9(4) . . ?
C22 N6 Co1 120.9(3) . 1_545 ?
C1 O5 Co1 89.1(3) . 4_465 ?
C14 O2 Co1 167.8(3) . 3 ?
C19 N1 Co1 122.2(3) . . ?
C19 N1 C15 116.1(4) . . ?
C15 N1 Co1 121.7(3) . . ?
C12 C11 C14 121.4(3) . . ?
C10 C11 C14 120.5(4) . . ?
C10 C11 C12 118.0(4) . . ?
O4 C1 Co1 59.3(2) . 4_465 ?
O4 C1 C2 118.7(4) . . ?
O5 C1 Co1 61.0(2) . 4_465 ?
O5 C1 O4 120.2(4) . . ?
O5 C1 C2 121.1(4) . . ?
C2 C1 Co1 176.0(3) . 4_465 ?
C8 O3 C5 118.4(3) . . ?
C7 C2 C1 120.8(4) . . ?
C7 C2 C3 118.5(4) . . ?
C3 C2 C1 120.7(4) . . ?
O1 C14 C11 117.4(3) . . ?
O2 C14 O1 123.7(4) . . ?
O2 C14 C11 118.9(4) . . ?
N3 C21 C23 118.4(4) . . ?
N4 C21 N3 123.9(4) . . ?
N4 C21 C23 117.7(4) . . ?
C8 C13 C12 118.9(4) . . ?
N2 C20 C18 118.6(4) . . ?
N5 C20 N2 123.1(4) . . ?
N5 C20 C18 118.2(4) . . ?
C16 C17 C18 118.7(4) . . ?
C21 N3 N2 118.4(4) . . ?
N1 C19 C18 124.5(4) . . ?
C24 C23 C21 121.1(4) . . ?
C22 C23 C21 120.8(4) . . ?
C22 C23 C24 118.1(4) . . ?
C13 C12 C11 121.6(4) . . ?
C20 N2 N3 117.3(4) . . ?
C17 C18 C20 122.0(4) . . ?
C19 C18 C20 119.7(4) . . ?
C19 C18 C17 118.2(4) . . ?
C15 C16 C17 118.8(4) . . ?
C25 C24 C23 119.0(4) . . ?
C2 C7 C6 121.5(5) . . ?
O3 C8 C9 123.8(4) . . ?
C13 C8 O3 115.1(4) . . ?
C13 C8 C9 121.1(4) . . ?
C8 C9 C10 119.2(4) . . ?
C6 C5 O3 117.6(5) . . ?
C4 C5 O3 120.6(5) . . ?
C4 C5 C6 121.6(4) . . ?
C9 C10 C11 121.3(4) . . ?
N1 C15 C16 123.7(4) . . ?
N5 N4 C21 117.4(4) . . ?
C5 C6 C7 118.8(5) . . ?
C2 C3 C4 120.7(5) . . ?
N4 N5 C20 119.5(4) . . ?
N6 C26 C25 123.5(4) . . ?
C24 C25 C26 118.7(5) . . ?
C5 C4 C3 118.9(5) . . ?
N6 C22 C23 123.9(4) . . ?
C29 N7 C27 123.0(8) . . ?
C29 N7 C28 118.0(7) . . ?
C27 N7 C28 118.9(7) . . ?
O6 C29 N7 128.1(8) . . ?
C32 N8 C31 117.5(11) . . ?
C30 N8 C31 115.8(14) . . ?
C30 N8 C32 126.7(14) . . ?
O7 C30 N8 131(2) . . ?
O7A C30A N8A 114(2) . . ?
C30A N8A C31A 115(2) . . ?
C30A N8A C32A 106.8(18) . . ?
C31A N8A C32A 125(3) . . ?
loop_
_geom_bond_atom_site_label_1
_geom_bond_atom_site_label_2
_geom_bond_distance
_geom_bond_site_symmetry_2
_geom_bond_publ_flag
Co1 O4 2.156(3) 4_666 ?
Co1 O1 2.033(3) . ?
Co1 N6 2.181(3) 1_565 ?
Co1 O5 2.192(3) 4_666 ?
Co1 O2 2.019(3) 3 ?
Co1 N1 2.151(3) . ?
Co1 C1 2.507(4) 4_666 ?
O4 Co1 2.156(3) 4_465 ?
O4 C1 1.259(5) . ?
O1 C14 1.256(4) . ?
N6 Co1 2.181(3) 1_545 ?
N6 C26 1.320(6) . ?
N6 C22 1.335(5) . ?
O5 Co1 2.192(3) 4_465 ?
O5 C1 1.250(5) . ?
O2 Co1 2.019(3) 3 ?
O2 C14 1.240(4) . ?
N1 C19 1.335(5) . ?
N1 C15 1.340(6) . ?
C11 C14 1.489(5) . ?
C11 C12 1.388(5) . ?
C11 C10 1.383(5) . ?
C1 Co1 2.507(4) 4_465 ?
C1 C2 1.490(6) . ?
O3 C8 1.378(5) . ?
O3 C5 1.405(5) . ?
C2 C7 1.371(6) . ?
C2 C3 1.376(6) . ?
C21 N3 1.314(6) . ?
C21 C23 1.480(6) . ?
C21 N4 1.312(6) . ?
C13 C12 1.380(5) . ?
C13 C8 1.373(5) . ?
C20 N2 1.316(5) . ?
C20 C18 1.470(5) . ?
C20 N5 1.315(6) . ?
C17 C18 1.379(6) . ?
C17 C16 1.379(6) . ?
N3 N2 1.327(5) . ?
C19 C18 1.375(5) . ?
C23 C24 1.377(6) . ?
C23 C22 1.365(5) . ?
C16 C15 1.376(6) . ?
C24 C25 1.366(6) . ?
C7 C6 1.383(6) . ?
C8 C9 1.378(6) . ?
C9 C10 1.379(5) . ?
C5 C6 1.362(7) . ?
C5 C4 1.362(7) . ?
N4 N5 1.306(5) . ?
C3 C4 1.394(6) . ?
C26 C25 1.374(6) . ?
O6 C29 1.215(8) . ?
N7 C29 1.292(8) . ?
N7 C27 1.439(8) . ?
N7 C28 1.444(9) . ?
N8 C31 1.444(12) . ?
N8 C32 1.412(13) . ?
N8 C30 1.283(14) . ?
O7 C30 1.167(15) . ?
O7A C30A 1.308(19) . ?
C30A N8A 1.403(18) . ?
N8A C31A 1.420(19) . ?
N8A C32A 1.51(4) . ?
