#------------------------------------------------------------------------------
#$Date: 2022-12-07 02:08:05 +0200 (Wed, 07 Dec 2022) $
#$Revision: 279748 $
#$URL: file:///home/coder/svn-repositories/cod/cif/7/71/18/7711875.cif $
#------------------------------------------------------------------------------
#
# This file is available in the Crystallography Open Database (COD),
# http://www.crystallography.net/
#
# All data on this site have been placed in the public domain by the
# contributors.
#
data_7711875
loop_
_publ_author_name
'Gao, Kexin'
'Chen, Junshuai'
'Zhao, Mengting'
'Hu, Rentang'
'Chen, Shiheng'
'Xue, Xiaojing'
'Shao, Zhichao'
'Hou, Hongwei'
_publ_section_title
;
 3D nano crystalline metal-organic framework materials improve output
 performance of triboelectric nanogenerator
;
_journal_name_full               'Dalton Transactions'
_journal_paper_doi               10.1039/D2DT03477H
_journal_year                    2022
_chemical_formula_moiety         'C11 H7 Cd0.5 N O4'
_chemical_formula_sum            'C11 H7 Cd0.5 N O4'
_chemical_formula_weight         273.39
_space_group_crystal_system      monoclinic
_space_group_IT_number           14
_space_group_name_Hall           '-P 2ybc'
_space_group_name_H-M_alt        'P 1 21/c 1'
_symmetry_Int_Tables_number      14
_audit_creation_date             2019-06-06
_audit_creation_method
;
Olex2 1.2-beta
(compiled 2018.05.29 svn.r3508 for OlexSys, GUI svn.r5506)
;
_audit_update_record
;
2022-10-17 deposited with the CCDC.	2022-12-05 downloaded from the CCDC.
;
_cell_angle_alpha                90
_cell_angle_beta                 93.757(5)
_cell_angle_gamma                90
_cell_formula_units_Z            4
_cell_length_a                   4.6802(7)
_cell_length_b                   15.507(2)
_cell_length_c                   12.8345(17)
_cell_measurement_reflns_used    5763
_cell_measurement_temperature    293(2)
_cell_measurement_theta_max      27.56
_cell_measurement_theta_min      2.63
_cell_volume                     929.5(2)
_computing_cell_refinement       'SAINT v8.37A (Bruker, 2015)'
_computing_data_reduction        'SAINT v8.37A (Bruker, 2015)'
_computing_molecular_graphics    'Olex2 (Dolomanov et al., 2009)'
_computing_publication_material  'Olex2 (Dolomanov et al., 2009)'
_computing_structure_refinement  'olex2.refine (Bourhis et al., 2015)'
_diffrn_ambient_temperature      293.15
_diffrn_measured_fraction_theta_full 0.9921
_diffrn_measured_fraction_theta_max 0.9921
_diffrn_measurement_device_type  'Bruker APEX-II CCD'
_diffrn_measurement_method       '\f and \w scans'
_diffrn_radiation_type           'Mo K\a'
_diffrn_radiation_wavelength     0.71073
_diffrn_reflns_av_R_equivalents  0.0561
_diffrn_reflns_av_unetI/netI     0.0430
_diffrn_reflns_limit_h_max       6
_diffrn_reflns_limit_h_min       -6
_diffrn_reflns_limit_k_max       20
_diffrn_reflns_limit_k_min       -20
_diffrn_reflns_limit_l_max       16
_diffrn_reflns_limit_l_min       -14
_diffrn_reflns_number            13107
_diffrn_reflns_theta_full        27.6335
_diffrn_reflns_theta_max         27.63
_diffrn_reflns_theta_min         2.06
_diffrn_standards_number         0
_exptl_absorpt_coefficient_mu    1.235
_exptl_absorpt_correction_T_max  0.7456
_exptl_absorpt_correction_T_min  0.6011
_exptl_absorpt_correction_type   multi-scan
_exptl_absorpt_process_details
;
SADABS-2016/2 (Bruker,2016/2) was used for absorption correction.
wR2(int) was 0.0905 before and 0.0666 after correction.
The Ratio of minimum to maximum transmission is 0.8062.
The \l/2 correction factor is Not present.
;
_exptl_crystal_colour            colourless
_exptl_crystal_colour_primary    colourless
_exptl_crystal_density_diffrn    1.9535
_exptl_crystal_description       block
_exptl_crystal_F_000             542.6902
_exptl_crystal_size_max          0.13
_exptl_crystal_size_mid          0.13
_exptl_crystal_size_min          0.12
_refine_diff_density_max         1.7206
_refine_diff_density_min         -1.0133
_refine_diff_density_rms         0.2012
_refine_ls_d_res_high            0.7662
_refine_ls_d_res_low             9.8746
_refine_ls_goodness_of_fit_ref   1.0764
_refine_ls_hydrogen_treatment    constr
_refine_ls_matrix_type           full
_refine_ls_number_constraints    13
_refine_ls_number_parameters     151
_refine_ls_number_reflns         2142
_refine_ls_number_restraints     0
_refine_ls_restrained_S_all      1.0764
_refine_ls_R_factor_all          0.0600
_refine_ls_R_factor_gt           0.0398
_refine_ls_shift/su_max          0.0000
_refine_ls_shift/su_mean         0.0000
_refine_ls_structure_factor_coef Fsqd
_refine_ls_weighting_details
'w=1/[\s^2^(Fo^2^)+(0.0607P)^2^+1.1203P] where P=(Fo^2^+2Fc^2^)/3'
_refine_ls_weighting_scheme      calc
_refine_ls_wR_factor_gt          0.0999
_refine_ls_wR_factor_ref         0.1091
_reflns_Friedel_coverage         0.0
_reflns_limit_h_max              6
_reflns_limit_h_min              -6
_reflns_limit_k_max              20
_reflns_limit_k_min              0
_reflns_limit_l_max              16
_reflns_limit_l_min              0
_reflns_number_gt                1633
_reflns_number_total             2142
_reflns_threshold_expression     I>=2u(I)
_iucr_refine_instructions_details
;
TITL mo_180629c_0m_a.res in P2(1)/c
REM Old TITL mo_180629c_0m in P2(1)/c
REM SHELXT solution in P2(1)/c
REM R1 0.098, Rweak 0.004, Alpha 0.037, Orientation as input
REM Formula found by SHELXT: C22 Cd N4 O6
CELL 0.71073 4.6802 15.5069 12.8345 90 93.757 90
ZERR 4 0.0007 0.0022 0.0017 0 0.005 0
LATT 1
SYMM -X,0.5+Y,0.5-Z
SFAC C H Cd N O
UNIT 44 28 2 4 16

L.S. 10
PLAN  20
SIZE 0.12 0.13 0.13
TEMP 20
ACTA 
BOND $H
LIST 6
FMAP 2
WGHT 0.060671 1.120299
FVAR 0.479911
REM <olex2.extras>
REM <HklSrc "%.\\mo_180629c_0m_a.hkl">
REM </olex2.extras>

Cd01  3     1.00000  0.50000  0.00000  10.50000  0.02596  0.01429  0.01389 =
 -0.00044  0.00538 -0.00243 
O2    5     0.87465  0.39563  0.10789  11.00000  0.03806  0.02594  0.02673 =
 0.00716  0.00814 -0.00837 
O3    5     0.72226  0.05404  0.35774  11.00000  0.03882  0.02421  0.02114 =
 0.00238  0.00084  0.01042 
O4    5     0.34516  0.09095  0.44767  11.00000  0.04093  0.02720  0.03690 =
 0.01008  0.01599 -0.00120 
N1    4     0.29507  0.32780  0.31428  11.00000  0.01937  0.01833  0.01855 =
 -0.00152  0.00265  0.00095 
O1    5     0.88728  0.26049  0.04427  11.00000  0.06131  0.03429  0.03999 =
 -0.00517  0.02978 -0.00559 
C9    1     0.31497  0.45096  0.43391  11.00000  0.02639  0.01811  0.02497 =
 -0.00104 -0.00087  0.00748 
C6    1     0.44799  0.34820  0.23187  11.00000  0.02722  0.01555  0.01737 =
 0.00117  0.00147 -0.00198 
AFIX 43
H6    2     0.42882  0.40249  0.20140  11.00000 -1.20000 
AFIX 0
C3    1     0.49941  0.18803  0.32359  11.00000  0.02064  0.02047  0.01539 =
 0.00134  0.00040 -0.00241 
C2    1     0.52273  0.10273  0.38074  11.00000  0.02737  0.01774  0.02334 =
 0.00055 -0.00051 -0.00462 
C7    1     0.31501  0.24960  0.36018  11.00000  0.02153  0.02108  0.01476 =
 0.00066  0.00190 -0.00180 
AFIX 43
H7    2     0.20564  0.23693  0.41616  11.00000 -1.20000 
AFIX 0
C8    1     0.12249  0.39668  0.36148  11.00000  0.02595  0.02547  0.02437 =
 -0.00421  0.00259  0.00859 
AFIX 23
H8a   2     0.03254  0.43261  0.30683  11.00000 -1.20000 
H8b   2    -0.02703  0.37078  0.40001  11.00000 -1.20000 
AFIX 0
C5    1     0.63116  0.28901  0.19317  11.00000  0.02319  0.02210  0.01469 =
 0.00123  0.00191 -0.00444 
C11   1     0.46897  0.51883  0.39499  11.00000  0.05210  0.02370  0.01937 =
 0.00229  0.00064 -0.00267 
AFIX 43
H11   2     0.44884  0.53182  0.32414  11.00000 -1.20000 
AFIX 0
C1    1     0.81672  0.31609  0.10488  11.00000  0.02438  0.02716  0.01870 =
 0.00391  0.00118 -0.00046 
C4    1     0.65806  0.20846  0.23935  11.00000  0.02181  0.01892  0.01710 =
 -0.00160  0.00385 -0.00079 
AFIX 43
H4    2     0.78259  0.16801  0.21389  11.00000 -1.20000 
AFIX 0
C10   1     0.34604  0.43212  0.53895  11.00000  0.04578  0.02611  0.02171 =
 0.00125  0.00658 -0.00465 
AFIX 43
H10   2     0.24384  0.38674  0.56587  11.00000 -1.20000 
AFIX 0
HKLF 4

END
Q1 1 0.8 0.5 0 11 0.05 1.72
Q2 1 1 0.555556 -0.011111 11 0.05 1.16
Q3 1 0.333333 0.055556 0.488889 11 0.05 0.72
Q4 1 0.533333 0.240741 0.011111 11 0.05 0.65
Q5 1 0.466667 0.537037 0.433333 11 0.05 0.64
Q6 1 0.333333 0.259259 0.566667 11 0.05 0.62
Q7 1 1.066667 0.37037 0.1 11 0.05 0.62
Q8 1 0.4 0.203704 0.344444 11 0.05 0.6
Q9 1 0.266667 0.203704 0.2 11 0.05 0.59
Q10 1 0.933333 0.277778 -0.044444 11 0.05 0.57
Q11 1 0.866667 0.351852 0.122222 11 0.05 0.56
Q12 1 0.133333 0.111111 0.522222 11 0.05 0.55
Q13 1 1.066667 0.037037 0.3 11 0.05 0.55
Q14 1 0.666667 0.203704 -0.033333 11 0.05 0.54
Q15 1 0.266667 0.092593 0.388889 11 0.05 0.54
Q16 1 -0.4 0.37037 0.388889 11 0.05 0.54
Q17 1 0.666667 0.407407 0.111111 11 0.05 0.53
Q18 1 0.133333 0.240741 0.5 11 0.05 0.52
Q19 1 0.933333 0.277778 0.088889 11 0.05 0.52
Q20 1 1 0.314815 0.022222 11 0.05 0.51

  REM The information below was added by Olex2.
  REM
  REM R1 = 0.0398 for 1633 Fo > 4sig(Fo) and 0.0600 for all 2142 data
  REM 151 parameters refined using 0 restraints
  REM Highest difference peak 1.7206, deepest hole -1.0133
  REM Mean Shift 0.0000, Max Shift 0.0000.

  REM +++ Tabular Listing of Refinement Information +++
  REM R1_all = 0.0600
  REM R1_gt = 0.0398
  REM wR_ref = 0.1091
  REM GOOF = 1.0764
  REM Shift_max = 0.0000
  REM Shift_mean = 0.0000
  REM Reflections_all = 2142
  REM Reflections_gt = 1633
  REM Parameters = 151
  REM Hole = -1.0133
  REM Peak = 1.7206
  REM Flack = n/a

  
;
_cod_data_source_file            d2dt03477h2.cif
_cod_data_source_block           mo_180629c_0m_a
_cod_database_code               7711875
_olex2_refinement_description
;
1. Fixed Uiso
 At 1.2 times of:
  All C(H) groups, All C(H,H) groups
2.a Secondary CH2 refined with riding coordinates:
 C8(H8a,H8b)
2.b Aromatic/amide H refined with riding coordinates:
 C6(H6), C7(H7), C4(H4), C11(H11), C10(H10)
;
_iucr_refine_fcf_details
;
data_mo_180629c_0m_a_CCDC1
_computing_structure_refinement   'olex2.refine (Bourhis et al., 2015)'
_shelx_refln_list_code            4
loop_
  _space_group_symop_id
  _space_group_symop_operation_xyz
  1  x,y,z
  2  -x,y+1/2,-z+1/2
  3  -x,-y,-z
  4  x,-y-1/2,z-1/2

_space_group_crystal_system       monoclinic
_space_group_IT_number            14
_space_group_name_H-M_alt         'P 1 21/c 1'
_space_group_name_Hall            '-P 2ybc'
_symmetry_space_group_name_H-M    'P 1 21/c 1'
_symmetry_space_group_name_Hall   '-P 2ybc'
_symmetry_Int_Tables_number       14
_cell_length_a                    4.6802(7)
_cell_length_b                    15.507(2)
_cell_length_c                    12.8345(17)
_cell_angle_alpha                 90
_cell_angle_beta                  93.757(5)
_cell_angle_gamma                 90
_cell_volume                      929.5(2)
loop_
  _refln_index_h
  _refln_index_k
  _refln_index_l
  _refln_F_squared_calc
  _refln_F_squared_meas
  _refln_F_squared_sigma
  _refln_F_squared_weight
  _refln_observed_status
-6 0 2 472.474 457.910 63.165 15.489 o
-6 1 1 94.420 115.282 37.693 52.399 o
-6 1 2 161.057 123.691 59.154 21.985 o
-6 1 3 182.717 254.502 43.406 36.246 o
-6 2 1 97.070 44.473 37.049 55.472 o
-6 2 2 645.570 670.499 69.216 11.607 o
-6 2 3 38.738 30.220 46.188 37.818 o
-6 3 1 329.714 406.587 58.031 19.473 o
-6 3 2 3.020 13.528 38.713 54.694 o
-5 0 2 2010.960 1977.700 81.061 3.500 o
-5 0 4 1301.770 1274.650 113.323 4.030 o
-5 0 6 357.783 431.928 50.734 23.264 o
-5 0 8 479.373 510.711 56.492 17.818 o
-5 0 10 1504.990 1513.450 121.573 3.317 o
-5 1 1 1211.000 1166.340 45.430 9.501 o
-5 1 2 633.470 649.296 37.984 22.506 o
-5 1 3 1169.150 1207.900 52.133 8.968 o
-5 1 4 422.520 368.380 42.347 28.919 o
-5 1 5 878.617 891.198 51.994 12.555 o
-5 1 6 5.122 -13.111 33.465 73.306 o
-5 1 7 397.776 423.928 43.644 27.751 o
-5 1 8 0.964 -0.935 34.123 70.703 o
-5 1 9 546.950 511.618 44.378 22.736 o
-5 1 10 82.727 39.619 40.319 47.912 o
-5 2 1 2.516 -1.636 23.668 146.559 o
-5 2 2 386.440 462.277 32.557 38.402 o
-5 2 3 4.511 1.418 38.738 54.752 o
-5 2 4 1099.450 1100.510 50.398 10.016 o
-5 2 5 1.258 -12.013 28.348 102.387 o
-5 2 6 804.259 871.045 62.666 11.181 o
-5 2 7 1.227 8.010 33.168 74.615 o
-5 2 8 579.985 563.449 45.120 21.154 o
-5 2 9 17.451 55.513 37.684 56.531 o
-5 2 10 178.400 218.785 50.648 28.253 o
-5 3 1 478.305 518.723 31.364 33.972 o
-5 3 2 6.382 -57.078 26.091 120.159 o
-5 3 3 955.221 1052.540 56.052 10.509 o
-5 3 4 57.951 29.119 27.381 101.391 o
-5 3 5 441.360 440.813 33.639 35.170 o
-5 3 6 1.433 -43.684 36.773 60.869 o
-5 3 7 516.577 487.485 38.479 27.512 o
-5 3 8 0.557 -2.172 40.219 50.913 o
-5 3 9 637.739 637.585 50.909 17.151 o
-5 3 10 28.218 15.099 40.367 49.677 o
-5 4 1 7.584 9.111 28.790 98.280 o
-5 4 2 322.250 344.277 34.404 42.185 o
-5 4 3 43.678 26.240 27.316 103.771 o
-5 4 4 348.409 340.548 33.057 42.898 o
-5 4 5 2.228 -5.447 27.349 109.894 o
-5 4 6 889.600 851.654 56.437 11.771 o
-5 4 7 1.234 23.495 31.717 81.085 o
-5 4 8 763.954 716.774 49.770 15.323 o
-5 4 9 5.250 -50.901 38.372 55.798 o
-5 5 1 771.394 823.366 57.267 12.766 o
-5 5 2 1.234 41.669 30.728 85.675 o
-5 5 3 395.395 415.605 37.483 33.613 o
-5 5 4 1.082 -31.965 29.106 97.147 o
-5 5 5 132.010 93.792 45.436 36.606 o
-5 5 6 88.849 102.609 32.393 69.452 o
-5 5 7 531.297 504.655 45.322 22.607 o
-5 5 8 8.085 17.037 51.194 31.279 o
-5 5 9 612.003 606.545 49.901 18.128 o
-5 6 1 7.434 83.557 35.449 63.498 o
-5 6 2 450.453 504.279 46.498 23.574 o
-5 6 3 17.857 3.960 30.251 88.522 o
-5 6 4 232.601 311.617 34.913 46.917 o
-5 6 5 72.634 49.603 30.821 79.343 o
-5 6 6 550.719 644.440 42.862 22.051 o
-5 6 7 0.243 2.549 37.358 58.978 o
-5 6 8 816.863 724.512 107.114 5.631 o
-5 6 9 21.303 29.091 87.706 10.669 o
-5 7 1 621.825 652.037 44.985 19.608 o
-5 7 2 71.236 96.399 36.978 55.665 o
-5 7 3 155.489 196.455 34.621 55.161 o
-5 7 4 3.580 -10.940 31.534 82.620 o
-5 7 5 732.736 690.805 43.689 17.848 o
-5 7 6 44.199 16.216 33.249 71.692 o
-5 7 7 271.496 231.028 36.380 44.347 o
-5 7 8 32.537 -69.598 38.166 55.559 o
-5 8 1 28.565 57.789 36.078 61.023 o
-5 8 2 327.289 348.060 39.300 35.354 o
-5 8 3 0.392 -8.161 33.797 72.102 o
-5 8 4 881.480 916.165 84.661 7.419 o
-5 8 5 3.120 26.956 35.972 63.035 o
-5 8 6 807.640 884.975 52.696 13.144 o
-5 8 7 0.128 18.740 36.471 61.596 o
-5 9 1 189.042 242.153 39.294 42.617 o
-5 9 2 95.455 132.421 37.246 53.121 o
-5 9 3 660.424 701.282 48.252 17.322 o
-5 9 4 10.293 -1.562 36.087 62.877 o
-5 9 5 584.807 654.914 46.210 19.716 o
-5 9 6 39.973 10.775 35.196 64.559 o
-5 10 1 7.560 14.520 38.874 54.102 o
-5 10 2 795.766 846.278 51.554 13.732 o
-5 10 3 14.239 2.201 38.164 56.103 o
-5 10 4 570.557 612.867 47.205 19.890 o
-5 10 5 2.711 78.484 38.856 53.352 o
-5 11 1 438.767 411.245 60.696 17.004 o
-5 11 2 2.370 47.665 42.741 44.590 o
-5 11 3 590.619 632.847 50.371 18.063 o
-4 0 2 312.072 448.785 44.289 29.078 o
-4 0 4 1102.070 1061.890 50.215 10.165 o
-4 0 6 862.582 847.963 67.082 10.084 o
-4 0 8 1151.800 1143.570 75.744 6.931 o
-4 0 10 1479.920 1279.430 95.522 4.562 o
-4 0 12 2352.560 2273.630 135.901 2.009 o
-4 1 1 1503.970 1512.540 30.955 7.486 o
-4 1 2 554.594 590.925 42.470 22.751 o
-4 1 3 971.471 919.528 40.451 13.602 o
-4 1 4 508.988 660.095 26.720 33.053 o
-4 1 5 1031.300 1076.920 39.785 12.138 o
-4 1 6 217.851 283.179 23.815 78.683 o
-4 1 7 2056.430 1996.460 59.319 3.911 o
-4 1 8 15.365 171.103 26.179 105.971 o
-4 1 9 632.764 616.562 42.229 20.935 o
-4 1 10 9.881 162.747 33.892 66.951 o
-4 1 11 260.480 302.157 95.717 8.452 o
-4 1 12 31.358 -45.156 53.405 28.632 o
-4 1 13 910.385 807.072 100.298 5.941 o
-4 2 1 143.416 213.353 19.843 120.635 o
-4 2 2 1781.460 1781.900 39.772 5.398 o
-4 2 3 282.566 311.094 19.463 80.760 o
-4 2 4 651.878 688.341 26.925 26.642 o
-4 2 5 914.084 1024.420 32.745 15.072 o
-4 2 6 907.305 894.578 33.916 15.953 o
-4 2 7 27.446 104.873 27.136 102.147 o
-4 2 8 1772.830 1854.420 48.065 5.068 o
-4 2 9 15.764 68.214 20.230 182.839 o
-4 2 10 1260.560 1250.350 58.956 7.698 o
-4 2 11 48.422 68.594 27.879 96.893 o
-4 2 12 378.921 365.303 44.655 28.121 o
-4 2 13 4.477 77.384 64.860 19.419 o
-4 3 1 1186.890 1142.590 32.493 11.093 o
-4 3 2 89.054 149.301 17.690 171.964 o
-4 3 3 1320.910 1231.390 33.513 9.463 o
-4 3 4 133.799 147.410 16.330 167.399 o
-4 3 5 1708.870 1674.440 41.720 5.782 o
-4 3 6 689.373 675.519 31.339 23.704 o
-4 3 7 960.723 962.934 38.019 13.903 o
-4 3 8 213.343 264.400 30.782 58.802 o
-4 3 9 1126.280 1088.410 67.548 7.939 o
-4 3 10 7.190 58.307 22.810 149.881 o
-4 3 11 533.295 558.701 38.012 26.300 o
-4 3 12 8.610 11.441 40.636 49.554 o
-4 3 13 146.840 239.117 53.102 26.278 o
-4 4 1 2.346 19.194 14.150 393.449 o
-4 4 2 1781.420 1703.110 39.667 5.536 o
-4 4 3 0.645 56.540 15.752 303.868 o
-4 4 4 540.668 577.182 25.488 34.410 o
-4 4 5 7.430 24.922 16.194 296.578 o
-4 4 6 1201.670 1119.650 35.694 10.746 o
-4 4 7 400.275 361.574 23.858 52.957 o
-4 4 8 1052.440 1053.550 44.709 11.349 o
-4 4 9 39.621 29.176 21.620 160.666 o
-4 4 10 959.278 962.706 42.276 13.162 o
-4 4 11 6.629 10.971 39.008 53.811 o
-4 4 12 944.271 769.866 60.218 10.970 o
-4 5 1 1831.340 1752.560 43.603 5.175 o
-4 5 2 58.837 69.108 16.253 236.602 o
-4 5 3 1938.810 1899.990 48.471 4.536 o
-4 5 4 35.587 60.234 16.460 251.876 o
-4 5 5 1393.750 1429.790 39.834 7.894 o
-4 5 6 4.979 15.406 16.260 300.526 o
-4 5 7 622.973 628.803 38.424 22.794 o
-4 5 8 81.004 39.103 22.884 133.883 o
-4 5 9 831.363 748.181 35.318 18.205 o
-4 5 10 0.697 -5.415 35.103 66.825 o
-4 5 11 882.119 851.920 73.757 8.938 o
-4 5 12 31.956 36.323 74.355 14.789 o
-4 6 1 32.691 67.921 22.460 146.715 o
-4 6 2 2084.090 2085.740 52.714 3.902 o
-4 6 3 2.337 17.175 16.730 285.778 o
-4 6 4 2013.470 1934.370 50.048 4.276 o
-4 6 5 0.941 8.591 21.928 169.924 o
-4 6 6 578.044 608.893 29.876 29.152 o
-4 6 7 186.724 143.551 24.490 91.314 o
-4 6 8 539.862 500.409 33.289 30.292 o
-4 6 9 7.101 -9.782 28.891 98.061 o
-4 6 10 692.363 627.872 50.884 16.484 o
-4 6 11 0.003 -62.158 41.553 47.708 o
-4 6 12 323.968 314.167 50.724 24.881 o
-4 7 1 533.357 524.368 36.828 27.589 o
-4 7 2 38.683 32.048 18.141 219.759 o
-4 7 3 1616.560 1549.370 53.356 5.889 o
-4 7 4 111.044 95.309 18.453 164.677 o
-4 7 5 1007.500 1052.160 40.350 12.442 o
-4 7 6 3.903 -19.802 22.255 165.342 o
-4 7 7 1235.870 1145.670 49.927 8.958 o
-4 7 8 0.691 12.607 27.006 112.132 o
-4 7 9 545.153 580.650 37.892 25.729 o
-4 7 10 26.073 9.928 45.880 38.679 o
-4 7 11 981.329 987.559 70.093 8.604 o
-4 8 1 290.871 250.384 23.335 72.358 o
-4 8 2 656.403 673.654 44.465 19.012 o
-4 8 3 16.269 -12.069 19.182 216.472 o
-4 8 4 1316.580 1211.410 44.244 8.728 o
-4 8 5 123.460 123.208 26.543 91.657 o
-4 8 6 973.679 1005.290 41.590 12.875 o
-4 8 7 57.992 60.791 21.375 153.778 o
-4 8 8 682.333 715.028 43.578 18.534 o
-4 8 9 4.135 69.151 31.675 79.616 o
-4 8 10 365.224 373.262 49.630 24.419 o
-4 8 11 5.307 -9.700 67.681 17.968 o
-4 9 1 257.884 290.429 25.863 66.660 o
-4 9 2 84.419 78.938 23.054 126.908 o
-4 9 3 311.821 350.004 28.904 51.916 o
-4 9 4 67.466 57.080 23.922 124.992 o
-4 9 5 1207.910 1133.250 45.089 9.680 o
-4 9 6 37.519 38.960 22.591 147.561 o
-4 9 7 743.020 777.337 43.729 16.976 o
-4 9 8 107.808 170.071 32.737 64.529 o
-4 9 9 1267.720 1385.740 85.103 5.494 o
-4 9 10 0.067 -24.095 46.768 37.662 o
-4 10 1 2.683 -3.157 25.495 126.341 o
-4 10 2 1451.280 1400.850 61.461 6.357 o
-4 10 3 63.174 32.898 29.200 89.299 o
-4 10 4 969.842 889.833 42.664 13.392 o
-4 10 5 282.633 228.653 27.416 63.082 o
-4 10 6 892.238 885.185 55.087 11.859 o
-4 10 7 20.102 -13.524 29.972 90.128 o
-4 10 8 294.224 354.420 39.974 35.605 o
-4 10 9 21.029 -28.676 48.665 34.545 o
-4 10 10 562.983 642.789 64.109 13.616 o
-4 11 1 774.339 872.733 52.951 13.491 o
-4 11 2 14.015 23.625 29.059 95.258 o
-4 11 3 317.748 359.676 34.379 42.059 o
-4 11 4 26.965 44.044 28.377 97.403 o
-4 11 5 785.685 837.732 49.698 14.343 o
-4 11 6 8.604 -10.889 29.306 95.195 o
-4 11 7 737.215 777.022 46.176 16.325 o
-4 11 8 29.840 19.661 35.404 64.074 o
-4 11 9 292.150 308.789 54.157 22.930 o
-4 12 1 332.996 295.865 36.086 40.386 o
-4 12 2 119.752 158.049 32.157 66.053 o
-4 12 3 63.326 106.957 31.290 75.670 o
-4 12 4 1201.890 1254.260 60.813 7.818 o
-4 12 5 50.518 19.144 31.774 77.686 o
-4 12 6 618.014 745.275 46.905 18.123 o
-4 12 7 80.271 23.511 33.886 66.929 o
-4 12 8 321.939 356.349 43.172 31.126 o
-4 13 1 170.826 176.235 35.611 52.429 o
-4 13 2 88.825 41.868 38.081 53.085 o
-4 13 3 705.066 729.446 76.890 9.597 o
-4 13 4 10.879 29.013 33.302 72.964 o
-4 13 5 311.266 365.102 38.964 36.037 o
-4 13 6 0.011 -18.650 39.795 52.017 o
-4 13 7 533.633 534.304 55.024 17.622 o
-4 14 1 11.734 -7.483 35.625 64.451 o
-4 14 2 1163.780 1111.360 61.608 8.307 o
-4 14 3 41.293 6.654 37.636 56.694 o
-4 14 4 329.579 365.188 55.212 21.341 o
-4 14 5 0.010 -38.047 37.273 59.294 o
-4 15 1 705.274 691.999 50.738 15.941 o
-4 15 2 0.320 -25.250 41.210 48.500 o
-4 15 3 611.251 784.060 106.811 5.967 o
-3 0 2 1027.450 1053.160 34.197 13.115 o
-3 0 4 4210.590 4206.220 110.292 1.003 o
-3 0 6 3613.170 3375.690 91.317 1.414 o
-3 0 8 137.572 189.100 25.762 89.040 o
-3 0 10 143.420 172.957 21.108 117.060 o
-3 0 12 976.159 983.353 108.547 5.022 o
-3 0 14 1990.000 1938.050 156.742 2.004 o
-3 1 1 1537.850 1448.760 28.283 7.584 o
-3 1 2 103.670 147.468 22.181 121.863 o
-3 1 3 1919.470 1788.380 34.019 5.082 o
-3 1 5 2536.830 2557.500 44.425 2.876 o
-3 1 7 1870.670 1792.200 35.261 5.203 o
-3 1 8 134.154 171.902 13.407 194.563 o
-3 1 9 1236.310 1236.560 34.665 10.029 o
-3 1 10 0.302 17.470 16.463 296.408 o
-3 1 11 962.174 929.500 59.714 10.346 o
-3 1 12 3.286 88.722 30.124 87.011 o
-3 1 13 1326.410 1281.590 88.881 5.247 o
-3 1 14 18.562 110.718 76.852 13.798 o
-3 2 1 17.548 39.159 14.625 337.772 o
-3 2 2 3880.150 3764.620 58.321 1.328 o
-3 2 3 163.617 172.048 15.173 158.835 o
-3 2 4 4214.980 4038.220 61.850 1.143 o
-3 2 5 730.213 835.068 25.973 22.343 o
-3 2 6 3756.670 3593.620 63.951 1.404 o
-3 2 7 303.309 605.903 57.973 18.659 o
-3 2 8 833.922 848.206 27.197 19.299 o
-3 2 9 186.607 201.358 20.246 108.467 o
-3 2 10 640.223 678.275 34.746 23.484 o
-3 2 11 3.609 33.715 26.358 115.908 o
-3 2 12 1026.550 1024.230 59.209 9.660 o
-3 2 13 9.372 -0.208 38.188 56.213 o
-3 2 14 508.751 487.552 95.088 7.823 o
-3 3 1 3990.110 3748.560 62.171 1.277 o
-3 3 2 9.485 19.997 10.458 661.491 o
-3 3 3 765.793 697.608 19.155 25.490 o
-3 3 4 46.032 72.568 14.149 302.026 o
-3 3 5 1678.650 1611.430 29.240 6.432 o
-3 3 6 637.256 593.276 24.014 30.499 o
-3 3 7 2825.780 2790.880 49.876 2.368 o
-3 3 8 273.533 399.814 24.470 62.452 o
-3 3 9 1373.230 1381.780 45.320 7.797 o
-3 3 10 781.432 751.165 52.010 14.304 o
-3 3 11 2247.600 2042.600 66.401 3.386 o
-3 3 12 40.779 96.895 34.210 65.903 o
-3 3 13 1000.380 959.968 64.703 9.280 o
-3 3 14 46.610 63.310 39.627 50.268 o
-3 4 1 174.020 187.896 11.085 187.011 o
-3 4 2 929.020 823.652 20.888 18.812 o
-3 4 3 31.545 42.606 9.196 640.577 o
-3 4 4 1172.490 1076.950 26.351 12.183 o
-3 4 5 157.984 214.766 12.910 171.596 o
-3 4 6 751.425 802.552 23.659 22.918 o
-3 4 7 1047.070 1093.580 48.254 10.733 o
-3 4 8 3496.310 3294.610 63.268 1.611 o
-3 4 9 111.599 117.783 20.937 134.331 o
-3 4 10 1193.080 1133.310 45.121 9.788 o
-3 4 11 0.028 80.271 43.355 43.078 o
-3 4 12 894.609 888.897 62.946 10.433 o
-3 4 13 0.427 -6.677 53.383 28.904 o
-3 4 14 1165.130 1100.750 73.048 7.206 o
-3 5 1 1405.580 1351.390 28.274 8.726 o
-3 5 2 92.587 92.394 11.441 309.607 o
-3 5 3 3035.280 2871.560 47.666 2.150 o
-3 5 4 0.370 4.929 9.325 924.766 o
-3 5 5 1540.340 1511.640 29.102 7.363 o
-3 5 6 9.879 28.844 10.702 616.347 o
-3 5 7 1104.880 1137.800 29.803 12.256 o
-3 5 8 112.959 120.661 42.866 40.861 o
-3 5 9 2672.380 2523.350 65.899 2.527 o
-3 5 10 3.087 37.761 23.272 147.424 o
-3 5 11 1430.950 1312.870 69.814 6.074 o
-3 5 12 56.423 70.048 27.727 96.824 o
-3 5 13 673.100 709.129 53.326 15.429 o
-3 5 14 5.343 -12.380 45.162 40.310 o
-3 6 1 36.270 42.865 10.104 546.846 o
-3 6 2 2903.930 2847.420 47.697 2.279 o
-3 6 3 202.067 201.824 12.623 153.743 o
-3 6 4 1519.910 1460.740 29.043 7.622 o
-3 6 5 113.068 112.701 10.981 280.135 o
-3 6 6 2767.770 2593.310 45.713 2.562 o
-3 6 7 0.634 8.304 13.005 476.856 o
-3 6 8 1879.320 1780.320 53.782 4.705 o
-3 6 9 428.210 387.596 28.090 43.665 o
-3 6 10 2021.460 1957.790 68.209 3.810 o
-3 6 11 0.424 2.663 34.139 70.601 o
-3 6 12 811.712 824.739 51.546 13.678 o
-3 6 13 6.824 -21.638 44.366 41.742 o
-3 6 14 600.864 638.267 64.349 13.260 o
-3 7 1 3672.970 3503.600 54.334 1.494 o
-3 7 2 194.213 204.739 14.139 145.718 o
-3 7 3 2749.630 2673.300 46.069 2.535 o
-3 7 4 59.150 54.463 12.546 351.844 o
-3 7 5 1494.860 1449.470 30.920 7.718 o
-3 7 6 276.164 288.948 14.304 101.922 o
-3 7 7 1663.460 1625.490 53.143 5.602 o
-3 7 8 1.553 51.718 23.067 148.754 o
-3 7 9 1732.380 1576.870 61.677 5.122 o
-3 7 10 2.166 -5.983 64.861 19.574 o
-3 7 11 868.077 761.153 51.074 13.523 o
-3 7 12 0.380 23.026 47.504 36.358 o
-3 7 13 511.654 518.037 52.380 19.198 o
-3 8 1 63.396 74.471 10.952 389.166 o
-3 8 2 948.134 945.871 24.540 16.584 o
-3 8 3 677.221 590.843 27.234 27.315 o
-3 8 4 505.925 528.304 18.728 43.447 o
-3 8 5 189.692 190.486 17.050 129.455 o
-3 8 6 1563.750 1492.380 37.302 6.954 o
-3 8 7 1.938 12.759 15.941 316.289 o
-3 8 8 1695.040 1732.630 70.845 4.663 o
-3 8 9 12.302 4.447 37.787 57.245 o
-3 8 10 1480.490 1510.790 80.879 5.026 o
-3 8 11 11.765 43.443 40.628 49.109 o
-3 8 12 746.271 776.045 56.374 13.438 o
-3 8 13 17.568 2.455 48.863 34.292 o
-3 9 1 2835.870 2637.790 44.854 2.470 o
-3 9 2 3.513 5.955 11.162 636.035 o
-3 9 3 1611.120 1519.510 31.964 6.871 o
-3 9 4 27.013 23.358 13.784 372.160 o
-3 9 5 1331.070 1326.980 36.399 8.836 o
-3 9 6 2.537 8.227 15.008 357.756 o
-3 9 7 833.530 814.278 40.581 16.179 o
-3 9 8 81.941 76.895 33.131 68.009 o
-3 9 9 664.206 664.900 49.689 17.026 o
-3 9 10 113.561 78.229 39.038 49.147 o
-3 9 11 837.094 885.507 51.815 13.033 o
-3 9 12 0.277 -28.239 58.227 24.296 o
-3 10 1 19.812 21.009 14.162 366.618 o
-3 10 2 717.385 683.235 26.618 24.707 o
-3 10 3 40.812 34.263 14.409 321.290 o
-3 10 4 4969.350 4837.480 87.275 0.804 o
-3 10 5 37.445 23.052 16.081 275.425 o
-3 10 6 699.533 752.500 44.075 17.756 o
-3 10 7 66.843 50.044 20.947 158.062 o
-3 10 8 995.412 1022.950 66.721 8.865 o
-3 10 9 11.456 6.087 36.816 60.279 o
-3 10 10 571.453 583.135 50.811 18.533 o
-3 10 11 27.578 64.377 55.850 25.989 o
-3 10 12 856.673 770.214 61.472 11.395 o
-3 11 1 1399.680 1361.800 40.782 7.999 o
-3 11 2 12.898 28.265 18.568 224.991 o
-3 11 3 3821.030 3868.390 86.431 1.249 o
-3 11 4 324.873 314.916 28.314 53.405 o
-3 11 5 817.510 723.303 36.303 18.416 o
-3 11 6 26.279 33.311 20.033 188.762 o
-3 11 7 530.233 581.031 50.993 19.090 o
-3 11 8 45.536 31.960 37.270 57.160 o
-3 11 9 684.097 706.568 55.409 14.696 o
-3 11 10 41.003 65.032 47.291 35.813 o
-3 11 11 177.720 182.424 50.968 28.241 o
-3 12 1 52.125 80.320 20.620 162.143 o
-3 12 2 2180.360 2187.500 60.261 3.488 o
-3 12 3 244.078 234.259 26.559 69.305 o
-3 12 4 302.810 337.913 30.959 49.183 o
-3 12 5 62.157 75.156 26.039 107.155 o
-3 12 6 1419.570 1231.490 48.776 7.716 o
-3 12 7 117.115 96.770 29.210 80.635 o
-3 12 8 497.032 539.497 91.649 8.292 o
-3 12 9 60.234 87.980 44.445 39.777 o
-3 12 10 714.780 761.456 59.589 13.009 o
-3 12 11 48.005 -52.084 50.740 31.512 o
-3 13 1 1503.740 1442.250 68.661 5.691 o
-3 13 2 124.832 110.941 29.178 79.268 o
-3 13 3 425.947 458.607 33.165 35.946 o
-3 13 4 80.015 118.034 28.314 87.903 o
-3 13 5 575.131 603.270 38.558 24.235 o
-3 13 6 55.601 62.964 25.646 112.056 o
-3 13 7 422.431 428.069 44.158 26.677 o
-3 13 8 27.445 107.331 46.576 36.765 o
-3 13 9 576.666 627.593 57.830 15.524 o
-3 13 10 23.844 32.733 52.052 30.042 o
-3 14 1 1.874 15.062 27.157 110.623 o
-3 14 2 834.463 881.175 52.460 12.944 o
-3 14 3 20.026 25.869 30.453 86.368 o
-3 14 4 1094.460 1128.730 55.679 9.318 o
-3 14 5 140.540 203.867 34.419 56.348 o
-3 14 6 498.859 502.402 32.397 32.558 o
-3 14 7 24.395 2.149 35.838 63.151 o
-3 14 8 885.711 789.867 62.355 10.943 o
-3 14 9 12.906 94.102 72.177 15.661 o
-3 15 1 648.878 632.798 49.254 17.635 o
-3 15 2 15.229 17.929 31.636 80.774 o
-3 15 3 470.464 520.724 39.112 27.931 o
-3 15 4 65.314 74.786 31.202 77.165 o
-3 15 5 797.651 836.550 44.795 15.445 o
-3 15 6 0.959 -18.343 40.892 49.244 o
-3 15 7 721.671 805.145 52.517 14.540 o
-3 15 8 4.380 -15.065 125.264 5.249 o
-3 16 1 42.141 56.339 35.081 63.797 o
-3 16 2 822.977 945.233 52.706 12.690 o
-3 16 3 0.451 11.923 33.307 73.933 o
-3 16 4 438.677 439.635 43.917 26.319 o
-3 16 5 11.115 -22.961 49.544 33.444 o
-3 16 6 569.911 517.822 48.757 19.994 o
-3 17 1 69.035 22.318 35.122 63.176 o
-3 17 2 19.528 34.297 35.702 63.162 o
-3 17 3 541.894 628.629 56.892 16.230 o
-3 17 4 0.036 84.010 61.860 21.336 o
-2 0 2 1434.990 1401.460 31.774 8.183 o
-2 0 4 2281.970 2158.700 50.742 3.495 o
-2 0 6 5725.170 5429.070 117.305 0.603 o
-2 0 8 2936.810 3017.700 92.933 1.860 o
-2 0 10 1187.530 1225.650 61.708 7.879 o
-2 0 12 1249.290 1218.640 108.113 4.399 o
-2 0 14 307.682 245.708 72.944 13.855 o
-2 0 16 1045.750 1074.530 128.954 3.760 o
-2 1 1 1953.830 1785.580 27.406 5.106 o
-2 1 2 1862.610 1813.090 29.284 5.325 o
-2 1 3 4639.270 4313.600 71.486 0.961 o
-2 1 4 107.191 101.420 8.757 349.935 o
-2 1 5 7622.600 7465.270 112.019 0.355 o
-2 1 6 4.482 46.264 14.533 353.440 o
-2 1 7 4610.160 4386.510 68.975 0.963 o
-2 1 8 5.042 51.212 10.812 582.853 o
-2 1 9 2766.610 2636.170 66.212 2.372 o
-2 1 10 23.396 62.559 20.305 179.856 o
-2 1 11 1458.190 1387.540 51.452 6.963 o
-2 1 12 436.564 375.965 45.053 26.282 o
-2 1 13 609.175 635.087 56.307 15.639 o
-2 1 14 75.514 -5.871 45.247 38.986 o
-2 1 15 907.985 850.939 81.905 7.762 o
-2 1 16 1.736 12.995 115.494 6.173 o
-2 2 1 354.890 300.362 12.317 87.055 o
-2 2 2 2497.220 2203.110 36.647 3.267 o
-2 2 3 259.995 300.161 18.292 89.935 o
-2 2 4 9305.560 9423.900 150.343 0.232 o
-2 2 5 32.432 46.203 9.906 569.486 o
-2 2 6 3929.250 3772.510 68.743 1.279 o
-2 2 7 17.268 31.429 10.660 588.204 o
-2 2 8 3545.250 3347.080 71.599 1.537 o
-2 2 9 875.791 887.256 31.767 17.011 o
-2 2 10 2745.000 2755.900 71.831 2.285 o
-2 2 11 315.788 315.937 23.609 64.438 o
-2 2 12 1194.020 1229.430 50.968 8.857 o
-2 2 13 24.333 5.719 38.940 53.568 o
-2 2 14 693.961 687.456 60.813 13.213 o
-2 2 15 2.984 12.623 57.242 25.087 o
-2 3 1 4153.720 3760.440 69.391 1.196 o
-2 3 2 101.095 121.834 6.784 392.346 o
-2 3 3 8825.830 8429.530 113.195 0.274 o
-2 3 4 305.224 346.444 11.538 95.239 o
-2 3 5 2797.880 2643.000 47.061 2.492 o
-2 3 6 297.046 303.483 15.835 89.986 o
-2 3 7 1513.240 1392.610 47.288 6.938 o
-2 3 8 211.350 249.777 26.895 71.049 o
-2 3 9 2298.940 2287.500 61.890 3.194 o
-2 3 10 2.734 17.259 16.793 283.361 o
-2 3 11 1556.970 1583.570 45.796 6.397 o
-2 3 12 4.981 16.632 19.447 212.097 o
-2 3 13 1930.020 1828.770 60.286 4.337 o
-2 3 14 37.827 12.137 27.463 104.254 o
-2 3 15 828.562 943.602 82.403 7.825 o
-2 4 1 293.520 328.975 10.803 102.721 o
-2 4 2 10263.900 9999.600 133.891 0.201 o
-2 4 3 139.589 162.027 8.345 262.332 o
-2 4 4 1839.660 1699.890 28.638 5.618 o
-2 4 5 307.982 313.562 17.491 81.852 o
-2 4 6 622.714 572.197 26.047 30.415 o
-2 4 7 507.218 497.334 23.407 40.239 o
-2 4 8 260.765 269.275 18.483 92.278 o
-2 4 9 49.218 18.249 15.592 281.876 o
-2 4 10 3461.640 3241.060 87.333 1.535 o
-2 4 11 156.702 123.799 16.558 159.766 o
-2 4 12 1455.740 1390.040 45.545 7.324 o
-2 4 13 24.520 13.449 22.852 150.559 o
-2 4 14 748.312 785.019 48.181 15.535 o
-2 4 15 37.028 49.175 40.763 48.066 o
-2 5 1 1919.450 1867.250 29.687 5.045 o
-2 5 2 4455.730 4625.210 64.741 0.978 o
-2 5 3 1946.640 1819.890 30.550 5.018 o
-2 5 4 249.343 248.730 10.306 134.209 o
-2 5 5 3512.980 3455.080 61.247 1.566 o
-2 5 6 471.620 460.519 23.170 44.122 o
-2 5 7 1259.230 1228.760 36.538 9.717 o
-2 5 8 11.900 8.052 15.176 339.527 o
-2 5 9 88.211 106.653 19.655 156.965 o
-2 5 10 359.191 380.826 23.762 56.067 o
-2 5 11 2533.550 2339.400 55.114 2.917 o
-2 5 12 281.490 279.514 22.652 73.680 o
-2 5 13 1642.570 1569.210 53.529 5.754 o
-2 5 14 0.013 56.524 30.994 83.798 o
-2 5 15 930.184 828.791 62.169 10.525 o
-2 6 1 668.101 726.638 16.035 29.762 o
-2 6 2 5505.020 5108.230 71.407 0.702 o
-2 6 3 81.141 98.119 7.471 455.647 o
-2 6 4 2909.280 2709.050 43.215 2.368 o
-2 6 5 97.439 109.292 10.055 326.211 o
-2 6 6 2253.570 2173.860 52.541 3.504 o
-2 6 7 16.229 15.314 13.963 385.432 o
-2 6 8 3053.500 2896.230 61.484 2.044 o
-2 6 9 406.121 391.320 29.801 42.682 o
-2 6 10 951.563 956.976 38.836 13.911 o
-2 6 11 0.191 -23.488 26.697 115.554 o
-2 6 12 2120.420 1916.760 55.749 3.939 o
-2 6 13 5.916 -60.786 27.918 105.085 o
-2 6 14 928.329 919.744 46.481 12.973 o
-2 6 15 22.149 -12.130 39.048 53.419 o
-2 7 1 2328.960 2152.930 34.006 3.633 o
-2 7 2 21.198 22.037 6.390 1237.000 o
-2 7 3 1994.000 1797.220 30.172 4.915 o
-2 7 4 16.521 1.454 7.510 1180.740 o
-2 7 5 2805.350 2797.330 45.613 2.413 o
-2 7 6 4.732 2.214 13.286 455.286 o
-2 7 7 1138.920 1219.070 36.267 10.807 o
-2 7 8 46.304 62.484 17.404 222.261 o
-2 7 9 2364.830 2212.100 58.030 3.209 o
-2 7 10 84.376 77.006 22.688 130.505 o
-2 7 11 639.425 685.548 38.210 21.840 o
-2 7 12 46.169 78.407 26.317 107.221 o
-2 7 13 1406.990 1249.490 57.434 7.120 o
-2 7 14 1.316 0.902 31.976 80.462 o
-2 7 15 975.659 926.474 105.508 5.283 o
-2 8 1 688.422 693.409 19.354 28.400 o
-2 8 2 2600.030 2506.730 40.019 2.863 o
-2 8 3 82.859 77.695 9.529 400.029 o
-2 8 4 1446.620 1334.260 26.102 8.608 o
-2 8 5 2.356 4.503 8.803 1017.310 o
-2 8 6 489.727 502.098 20.741 43.790 o
-2 8 7 85.159 62.162 16.747 211.560 o
-2 8 8 2627.810 2539.030 65.328 2.572 o
-2 8 9 253.418 245.426 25.061 72.234 o
-2 8 10 1860.100 1737.820 60.839 4.596 o
-2 8 11 128.057 136.351 31.398 68.914 o
-2 8 12 801.336 860.853 58.822 12.005 o
-2 8 13 25.051 -1.700 29.592 92.001 o
-2 8 14 819.305 713.684 51.663 14.177 o
-2 9 1 3142.400 3135.070 51.128 1.942 o
-2 9 2 31.990 45.926 9.394 613.704 o
-2 9 3 1478.280 1445.010 28.076 7.955 o
-2 9 4 14.372 15.575 9.055 829.236 o
-2 9 5 432.867 368.351 15.817 61.756 o
-2 9 6 19.561 26.575 13.620 388.954 o
-2 9 7 4550.350 4384.490 107.816 0.905 o
-2 9 8 0.085 4.309 24.475 137.130 o
-2 9 9 1508.740 1511.100 55.358 6.268 o
-2 9 10 13.712 38.955 47.002 36.845 o
-2 9 11 448.613 399.516 36.188 33.196 o
-2 9 12 4.946 -0.496 26.740 114.609 o
-2 9 13 542.566 536.442 40.836 24.601 o
-2 9 14 92.058 77.077 36.714 55.911 o
-2 10 1 122.512 127.297 11.653 248.485 o
-2 10 2 1428.180 1429.440 29.033 8.274 o
-2 10 3 21.270 26.363 10.239 621.702 o
-2 10 4 451.387 458.630 17.588 52.278 o
-2 10 5 3.362 -11.836 10.128 783.774 o
-2 10 6 7071.270 6795.090 129.990 0.404 o
-2 10 7 56.728 65.832 24.243 123.354 o
-2 10 8 1961.250 1950.870 63.047 4.063 o
-2 10 9 59.589 62.729 26.220 107.129 o
-2 10 10 1046.800 1004.700 82.867 6.893 o
-2 10 11 42.590 37.570 26.640 108.152 o
-2 10 12 514.030 552.048 40.839 25.123 o
-2 10 13 5.286 -19.823 41.957 46.689 o
-2 11 1 2051.750 1966.320 38.041 4.386 o
-2 11 2 81.402 102.115 12.242 296.860 o
-2 11 3 929.317 915.745 25.097 17.112 o
-2 11 4 0.392 11.894 11.463 604.825 o
-2 11 5 4227.740 4110.470 66.383 1.118 o
-2 11 6 2.670 8.201 14.298 393.081 o
-2 11 7 3376.700 3254.260 105.365 1.476 o
-2 11 8 2.253 9.968 25.684 123.844 o
-2 11 9 1642.990 1615.090 70.498 4.955 o
-2 11 10 69.176 43.757 65.991 18.569 o
-2 11 11 482.422 500.967 36.360 29.975 o
-2 11 12 174.663 122.532 46.480 33.933 o
-2 11 13 197.385 206.774 65.478 17.678 o
-2 12 1 40.129 38.235 13.358 360.647 o
-2 12 2 1560.810 1525.040 35.726 6.956 o
-2 12 3 157.242 147.982 14.668 173.313 o
-2 12 4 1797.450 1866.810 41.653 5.157 o
-2 12 5 13.334 30.139 15.928 298.208 o
-2 12 6 364.673 437.713 21.471 56.661 o
-2 12 7 72.080 93.703 26.948 98.284 o
-2 12 8 1857.050 1584.440 121.405 2.921 o
-2 12 9 0.215 -46.690 35.835 64.141 o
-2 12 10 568.586 569.063 86.746 8.808 o
-2 12 11 36.287 46.319 42.868 43.636 o
-2 12 12 765.550 735.699 50.167 15.074 o
-2 13 1 1437.200 1463.070 41.772 7.449 o
-2 13 2 76.046 69.300 17.416 202.891 o
-2 13 3 2534.020 2758.380 75.919 2.442 o
-2 13 4 2.553 5.461 20.208 199.772 o
-2 13 5 1401.560 1319.880 52.715 7.309 o
-2 13 6 47.708 30.353 19.067 197.559 o
-2 13 7 841.933 758.500 56.832 12.516 o
-2 13 8 12.363 18.442 36.002 62.739 o
-2 13 9 1022.090 982.321 69.732 8.459 o
-2 13 10 1.912 6.746 72.076 15.845 o
-2 13 11 492.808 462.724 45.441 23.784 o
-2 14 1 96.934 117.923 20.319 144.762 o
-2 14 2 1755.480 1812.440 53.039 5.026 o
-2 14 3 1.931 -25.404 20.582 193.805 o
-2 14 4 1119.600 1140.850 46.466 10.178 o
-2 14 5 60.932 59.162 24.240 123.213 o
-2 14 6 589.997 612.978 34.996 25.670 o
-2 14 7 0.661 -25.476 28.773 99.445 o
-2 14 8 436.354 357.119 64.667 15.662 o
-2 14 9 134.884 209.901 53.459 26.310 o
-2 14 10 933.289 917.139 88.984 6.793 o
-2 14 11 228.531 259.662 62.596 18.739 o
-2 15 1 1197.380 1220.490 62.794 7.743 o
-2 15 2 0.012 -1.278 30.836 86.632 o
-2 15 3 2094.900 2145.010 72.346 3.431 o
-2 15 4 18.463 11.460 28.044 102.274 o
-2 15 5 1127.850 1105.950 49.209 9.926 o
-2 15 6 5.407 -4.484 26.682 115.047 o
-2 15 7 987.994 967.900 58.351 10.235 o
-2 15 8 43.170 1.439 46.406 37.624 o
-2 15 9 322.422 295.436 55.846 21.500 o
-2 15 10 28.008 108.513 43.914 41.169 o
-2 16 1 0.270 40.987 30.165 88.945 o
-2 16 2 840.614 870.221 47.233 14.091 o
-2 16 3 20.958 15.428 29.970 89.447 o
-2 16 4 809.722 880.142 49.225 13.934 o
-2 16 5 29.201 9.849 28.829 95.953 o
-2 16 6 404.102 463.083 45.060 26.018 o
-2 16 7 17.436 36.791 53.645 28.341 o
-2 16 8 248.218 258.012 58.870 20.697 o
-2 17 1 827.476 855.390 50.517 13.578 o
-2 17 2 9.158 3.358 50.997 31.575 o
-2 17 3 438.888 461.793 40.437 28.710 o
-2 17 4 0.787 -5.455 32.847 76.309 o
-2 17 5 910.455 959.632 51.566 12.009 o
-2 17 6 13.610 2.830 39.249 53.075 o
-2 17 7 128.231 125.382 41.615 42.594 o
-2 18 1 80.404 63.202 43.242 41.730 o
-2 18 2 526.648 491.261 45.275 22.868 o
-2 18 3 14.426 34.449 38.398 54.929 o
-2 18 4 527.467 543.878 57.718 16.562 o
-2 18 5 17.794 3.269 44.266 41.718 o
-2 19 1 663.287 729.893 64.199 12.445 o
-1 0 2 1254.650 1158.210 27.440 10.805 o
-1 0 4 2123.720 2021.020 52.605 3.890 o
-1 0 6 1866.890 1890.190 164.102 1.963 o
-1 0 8 6261.790 6802.190 298.245 0.331 o
-1 0 10 3241.320 3892.120 188.004 0.990 o
-1 0 12 849.184 1094.900 97.693 5.979 o
-1 0 14 2537.400 2679.990 174.110 1.425 o
-1 0 16 658.524 669.434 125.481 4.551 o
-1 1 1 14802.600 14847.900 257.427 0.092 o
-1 1 2 1346.020 1332.540 26.800 9.313 o
-1 1 3 5927.480 5810.490 152.458 0.523 o
-1 1 4 950.321 1010.080 23.399 16.154 o
-1 1 5 279.704 253.789 14.650 104.440 o
-1 1 6 710.307 908.778 25.812 21.936 o
-1 1 7 2635.170 2650.680 55.006 2.603 o
-1 1 8 791.457 963.078 27.038 19.012 o
-1 1 9 4143.470 4465.580 101.560 1.010 o
-1 1 10 21.162 53.505 23.982 134.014 o
-1 1 11 1770.110 2116.630 88.714 3.571 o
-1 1 12 83.286 126.801 34.231 62.571 o
-1 1 13 591.690 619.687 80.303 9.747 o
-1 1 14 304.480 295.540 48.475 27.257 o
-1 1 15 944.840 1131.160 130.018 3.785 o
-1 1 16 57.657 73.957 68.333 17.325 o
-1 2 1 8376.970 8014.690 105.527 0.304 o
-1 2 2 4479.100 4105.330 58.132 1.055 o
-1 2 3 388.916 369.019 17.314 65.070 o
-1 2 4 3139.130 2987.620 66.665 1.915 o
-1 2 5 1088.980 1155.830 43.082 10.773 o
-1 2 6 7490.890 7990.320 152.231 0.333 o
-1 2 7 49.675 60.691 7.887 621.953 o
-1 2 8 5259.780 5468.690 97.656 0.686 o
-1 2 9 195.725 236.455 17.040 120.068 o
-1 2 10 3872.570 4015.060 84.079 1.211 o
-1 2 11 216.857 215.161 19.729 102.494 o
-1 2 12 2518.530 2588.120 116.917 2.044 o
-1 2 13 86.276 43.196 31.408 75.851 o
-1 2 14 1131.620 1367.400 143.934 2.999 o
-1 2 15 27.555 10.043 56.451 25.640 o
-1 2 16 1191.850 1193.050 96.820 5.167 o
-1 3 1 10298.700 10107.500 148.444 0.197 o
-1 3 2 928.358 916.722 15.274 18.659 o
-1 3 3 10571.400 10322.900 162.623 0.186 o
-1 3 4 2472.190 2507.620 51.465 2.927 o
-1 3 5 4778.540 4691.190 83.362 0.864 o
-1 3 6 37.892 60.191 9.539 551.650 o
-1 3 7 1942.560 1839.030 41.606 4.770 o
-1 3 8 197.859 209.150 12.709 153.395 o
-1 3 9 2394.820 2319.070 47.758 3.217 o
-1 3 10 140.493 147.909 13.295 199.874 o
-1 3 11 2240.840 2269.210 63.848 3.264 o
-1 3 12 78.232 89.255 18.919 173.657 o
-1 3 13 984.021 1004.060 41.237 12.825 o
-1 3 14 13.833 19.995 26.753 112.158 o
-1 3 15 892.804 923.199 61.835 10.512 o
-1 3 16 18.231 -72.008 44.986 40.422 o
-1 4 1 1204.560 1215.140 18.101 11.679 o
-1 4 2 8010.770 8207.440 108.489 0.316 o
-1 4 3 216.596 213.717 8.104 172.186 o
-1 4 4 10992.000 11369.600 213.758 0.161 o
-1 4 5 292.839 273.043 16.714 91.364 o
-1 4 6 2180.100 1972.320 69.677 3.487 o
-1 4 7 151.135 149.069 10.630 225.781 o
-1 4 8 1448.850 1448.470 32.384 7.923 o
-1 4 9 67.054 55.864 9.442 471.121 o
-1 4 10 863.511 838.196 24.711 19.338 o
-1 4 11 127.357 126.103 13.186 219.446 o
-1 4 12 1555.930 1507.760 49.704 6.374 o
-1 4 13 58.383 65.211 21.140 155.903 o
-1 4 14 879.401 857.399 54.096 12.290 o
-1 4 15 1.056 -4.125 32.361 78.604 o
-1 4 16 683.984 716.948 57.525 14.044 o
-1 5 1 11900.000 11718.100 147.376 0.150 o
-1 5 2 849.661 881.661 15.442 20.978 o
-1 5 3 5741.140 6052.790 86.246 0.589 o
-1 5 4 324.135 342.674 14.367 84.224 o
-1 5 5 4931.310 4771.750 86.674 0.819 o
-1 5 6 703.452 731.386 21.391 26.351 o
-1 5 7 3558.040 3383.910 59.605 1.567 o
-1 5 8 51.378 38.820 9.843 521.562 o
-1 5 9 3152.630 3123.040 53.842 1.926 o
-1 5 10 50.219 55.737 11.272 421.700 o
-1 5 11 493.252 508.951 21.364 42.692 o
-1 5 12 311.823 318.556 19.839 74.312 o
-1 5 13 1559.390 1501.380 61.850 5.768 o
-1 5 14 5.804 15.692 21.885 168.303 o
-1 5 15 519.337 522.861 47.504 21.469 o
-1 5 16 16.233 -19.357 38.111 56.230 o
-1 6 1 1160.490 1247.250 19.625 11.895 o
-1 6 2 9024.300 9554.000 151.651 0.239 o
-1 6 3 480.139 518.703 13.079 50.913 o
-1 6 4 7861.090 8090.800 141.004 0.316 o
-1 6 5 410.488 424.025 18.075 57.785 o
-1 6 6 3440.960 3268.030 62.880 1.652 o
-1 6 7 0.000 6.833 10.809 689.889 o
-1 6 8 3148.660 3088.040 56.883 1.926 o
-1 6 9 89.762 87.280 11.329 320.405 o
-1 6 10 1924.250 1880.890 38.725 4.827 o
-1 6 11 96.952 94.556 15.080 223.143 o
-1 6 12 233.853 255.049 20.478 91.238 o
-1 6 13 16.291 16.906 35.080 65.898 o
-1 6 14 1192.570 1260.820 80.114 6.233 o
-1 6 15 32.199 8.882 28.913 95.174 o
-1 7 1 4953.840 5017.430 66.159 0.815 o
-1 7 2 515.321 511.255 12.778 48.133 o
-1 7 3 2917.490 2689.120 39.993 2.388 o
-1 7 4 2219.700 2415.790 38.810 3.538 o
-1 7 5 4954.540 4664.020 94.713 0.813 o
-1 7 6 51.096 63.983 10.989 424.404 o
-1 7 7 5416.190 5170.430 96.051 0.687 o
-1 7 8 711.475 724.423 27.254 24.012 o
-1 7 9 939.565 924.668 26.068 16.669 o
-1 7 10 815.633 734.274 25.448 21.567 o
-1 7 11 3936.850 3847.340 98.291 1.173 o
-1 7 12 21.838 7.800 18.483 227.620 o
-1 7 13 691.715 728.638 55.030 14.602 o
-1 7 14 169.277 177.259 27.479 77.969 o
-1 7 15 767.394 704.943 55.713 13.748 o
-1 8 1 455.428 488.648 11.867 56.249 o
-1 8 2 2690.860 2728.340 38.972 2.619 o
-1 8 3 45.120 41.094 6.287 861.487 o
-1 8 4 3374.320 3334.030 49.024 1.725 o
-1 8 5 113.253 147.896 11.923 242.776 o
-1 8 6 5262.070 4971.200 92.918 0.731 o
-1 8 7 1.709 9.666 13.592 434.239 o
-1 8 8 48.752 45.464 17.009 234.654 o
-1 8 9 785.714 666.018 26.932 22.829 o
-1 8 10 270.208 288.394 19.764 83.965 o
-1 8 11 1.376 -18.180 17.096 280.861 o
-1 8 12 1958.480 1952.150 99.567 3.145 o
-1 8 13 112.275 101.880 22.758 120.542 o
-1 8 14 652.299 683.366 39.545 21.001 o
-1 8 15 32.797 -14.541 32.160 77.675 o
-1 9 1 810.934 789.800 15.675 23.369 o
-1 9 2 33.812 27.611 6.925 944.315 o
-1 9 3 1912.730 1980.000 34.413 4.807 o
-1 9 4 147.244 149.393 9.248 248.218 o
-1 9 5 2887.440 2785.110 45.586 2.337 o
-1 9 6 236.407 245.157 15.221 115.924 o
-1 9 7 791.118 763.482 30.165 20.409 o
-1 9 8 23.559 35.083 17.710 237.324 o
-1 9 9 3212.830 3023.090 75.210 1.803 o
-1 9 10 39.086 31.269 16.477 259.657 o
-1 9 11 1349.520 1355.200 57.861 7.111 o
-1 9 12 160.810 142.989 25.502 90.314 o
-1 9 13 1646.830 1758.290 117.522 3.152 o
-1 9 14 30.970 -4.373 36.035 62.257 o
-1 10 1 0.914 -6.237 6.696 1809.530 o
-1 10 2 902.702 923.107 19.486 18.539 o
-1 10 3 224.802 225.460 11.842 142.349 o
-1 10 4 2326.120 2262.830 37.455 3.499 o
-1 10 5 3.051 -2.440 8.567 1088.420 o
-1 10 6 2272.780 2224.530 43.137 3.561 o
-1 10 7 288.470 311.967 27.645 58.039 o
-1 10 8 3127.310 2912.400 78.021 1.877 o
-1 10 9 0.635 8.977 18.349 241.883 o
-1 10 10 557.489 596.896 31.267 29.259 o
-1 10 11 0.034 -23.629 21.133 184.448 o
-1 10 12 974.591 1001.000 43.772 12.524 o
-1 10 13 15.680 9.322 27.307 108.172 o
-1 10 14 1137.330 1046.640 75.449 7.198 o
-1 11 1 991.599 933.405 19.706 16.620 o
-1 11 2 195.562 185.987 10.460 178.635 o
-1 11 3 605.550 597.555 18.984 34.704 o
-1 11 4 13.832 8.933 9.919 731.619 o
-1 11 5 1216.490 1264.350 25.730 10.791 o
-1 11 6 62.355 53.055 13.017 331.165 o
-1 11 7 2823.680 2727.450 66.666 2.272 o
-1 11 8 21.555 19.093 16.988 262.851 o
-1 11 9 1985.660 1788.590 55.193 4.390 o
-1 11 10 66.634 65.213 23.513 128.097 o
-1 11 11 1668.790 1617.600 51.448 5.666 o
-1 11 12 6.056 -22.669 23.871 143.411 o
-1 11 13 1002.680 1005.690 50.876 11.101 o
-1 12 1 307.332 351.514 13.426 89.263 o
-1 12 2 783.247 770.884 20.450 23.366 o
-1 12 3 8.073 -0.368 9.957 782.511 o
-1 12 4 2339.680 2322.780 48.414 3.294 o
-1 12 5 344.196 360.673 15.427 76.285 o
-1 12 6 2227.300 2264.640 41.585 3.628 o
-1 12 7 240.548 261.096 23.816 77.014 o
-1 12 8 498.213 528.866 27.761 35.944 o
-1 12 9 169.280 181.590 29.033 71.769 o
-1 12 10 978.797 902.425 39.924 13.713 o
-1 12 11 210.088 227.820 55.325 23.709 o
-1 12 12 986.093 934.605 46.804 12.237 o
-1 12 13 23.986 9.928 33.427 72.240 o
-1 13 1 2002.340 2029.440 36.123 4.465 o
-1 13 2 935.981 910.572 23.696 17.280 o
-1 13 3 1039.380 1065.750 25.381 14.051 o
-1 13 4 1.227 -1.140 12.485 525.425 o
-1 13 5 1352.210 1403.350 32.665 8.669 o
-1 13 6 44.137 29.689 14.217 327.065 o
-1 13 7 1187.340 1115.410 40.080 10.439 o
-1 13 8 0.556 -2.461 26.615 116.226 o
-1 13 9 316.147 332.779 46.688 28.202 o
-1 13 10 140.794 149.217 28.945 76.660 o
-1 13 11 1250.040 1199.480 105.796 4.533 o
-1 13 12 6.985 39.400 30.744 85.250 o
-1 14 1 184.068 219.026 16.978 127.021 o
-1 14 2 3573.360 3583.430 65.818 1.486 o
-1 14 3 242.378 264.350 19.237 93.684 o
-1 14 4 1351.070 1441.190 41.246 8.021 o
-1 14 5 82.712 82.200 21.877 138.181 o
-1 14 6 1501.890 1534.410 50.349 6.510 o
-1 14 7 3.581 -0.385 26.524 116.650 o
-1 14 8 1155.580 1102.230 51.425 9.486 o
-1 14 9 15.989 15.293 29.428 93.125 o
-1 14 10 1230.690 1276.100 65.041 7.265 o
-1 14 11 76.626 8.399 65.151 19.088 o
-1 15 1 1265.370 1270.290 41.553 9.097 o
-1 15 2 652.325 642.142 29.180 26.331 o
-1 15 3 1685.590 1763.180 49.761 5.428 o
-1 15 4 57.923 19.855 21.086 163.829 o
-1 15 5 1382.290 1356.230 48.145 7.626 o
-1 15 6 0.811 0.338 23.678 146.739 o
-1 15 7 783.736 783.474 37.640 18.084 o
-1 15 8 2.841 18.588 33.310 73.624 o
-1 15 9 1373.470 1376.940 68.268 6.262 o
-1 15 10 3.258 -0.726 38.145 56.520 o
-1 15 11 202.406 121.573 77.720 12.972 o
-1 16 1 387.158 411.583 27.288 46.734 o
-1 16 2 1275.810 1359.670 48.057 8.216 o
-1 16 3 24.799 10.429 34.213 68.968 o
-1 16 4 1474.060 1456.590 50.057 6.816 o
-1 16 5 102.398 81.739 27.148 93.868 o
-1 16 6 639.040 645.706 35.236 23.715 o
-1 16 7 10.236 31.899 27.645 104.953 o
-1 16 8 1195.450 1222.510 58.261 8.169 o
-1 16 9 15.525 -21.803 53.645 28.506 o
-1 17 1 1666.810 1764.780 64.519 4.933 o
-1 17 2 1.642 -21.450 27.152 111.552 o
-1 17 3 1236.710 1222.850 49.286 8.766 o
-1 17 4 73.047 25.439 28.154 94.828 o
-1 17 5 631.765 718.586 36.899 22.213 o
-1 17 6 3.146 -22.693 27.677 107.207 o
-1 17 7 945.283 934.758 51.596 11.799 o
-1 17 8 3.184 -40.718 34.771 68.003 o
-1 18 1 40.218 108.272 30.340 81.921 o
-1 18 2 911.278 1013.020 61.974 10.060 o
-1 18 3 9.629 -1.888 52.417 29.902 o
-1 18 4 707.252 729.372 43.240 18.105 o
-1 18 5 100.591 58.754 36.269 57.202 o
-1 18 6 452.794 456.395 41.334 27.683 o
-1 18 7 0.533 42.367 48.346 34.990 o
-1 19 1 830.686 860.216 47.969 14.098 o
-1 19 2 31.343 52.708 38.358 54.200 o
-1 19 3 1133.740 1228.190 71.963 7.175 o
-1 19 4 97.957 80.933 37.705 52.930 o
-1 19 5 920.568 983.557 68.558 9.134 o
0 0 2 6588.550 10650.700 512.213 0.164 o
0 0 4 105.877 112.591 7.149 382.706 o
0 0 6 2771.450 3738.390 93.169 1.739 o
0 0 8 3295.520 4323.660 197.122 0.899 o
0 0 10 1177.830 1582.230 65.219 6.827 o
0 0 12 450.227 548.455 55.142 18.552 o
0 0 14 259.066 332.746 73.161 13.807 o
0 0 16 1356.740 1768.280 179.320 1.959 o
0 1 1 10480.600 12430.100 295.024 0.148 o
0 1 2 635.735 675.646 22.955 29.371 o
0 1 3 3082.640 3870.730 150.489 1.219 o
0 1 4 1370.260 1898.520 44.654 6.575 o
0 1 5 3437.090 4617.230 89.214 1.243 o
0 1 6 990.817 1413.630 28.674 12.105 o
0 1 7 5666.930 8189.360 173.773 0.426 o
0 1 8 961.786 1297.830 31.775 12.758 o
0 1 9 3895.840 5073.900 100.105 0.998 o
0 1 10 309.891 369.226 19.995 70.457 o
0 1 11 1314.260 1558.790 47.120 7.520 o
0 1 12 64.198 72.248 21.351 150.529 o
0 1 13 1229.830 1340.910 70.756 6.679 o
0 1 14 73.372 97.122 37.556 53.987 o
0 1 15 830.811 855.184 93.046 6.759 o
0 1 16 171.390 202.699 160.411 3.161 o
0 2 1 1044.120 975.398 17.798 15.544 o
0 2 2 21597.900 22387.200 346.844 0.043 o
0 2 3 194.207 209.787 10.217 173.744 o
0 2 4 1529.450 1550.410 63.755 5.691 o
0 2 5 219.929 248.154 9.753 150.971 o
0 2 6 2947.590 3176.280 100.180 1.750 o
0 2 7 487.872 591.891 17.869 43.133 o
0 2 8 4531.290 5472.020 180.643 0.662 o
0 2 9 436.009 545.437 19.563 47.513 o
0 2 10 1907.750 2321.720 61.033 3.845 o
0 2 11 101.653 116.584 15.954 198.097 o
0 2 12 1146.420 1289.090 36.190 10.434 o
0 2 13 23.801 12.416 19.383 206.159 o
0 2 14 1669.110 1723.320 127.521 2.877 o
0 2 15 3.345 8.862 44.224 41.993 o
0 2 16 456.558 489.989 75.189 11.798 o
0 3 1 836.146 856.127 13.104 22.081 o
0 3 2 1958.210 2118.270 29.345 4.574 o
0 3 3 6577.930 7019.050 195.707 0.388 o
0 3 4 384.532 414.326 11.708 71.523 o
0 3 5 8739.360 9836.560 217.198 0.227 o
0 3 6 433.301 462.911 16.628 55.068 o
0 3 7 6336.000 7274.360 176.588 0.409 o
0 3 8 220.640 253.206 14.967 121.032 o
0 3 9 1470.160 1598.200 60.836 5.961 o
0 3 10 1.687 -9.818 10.838 693.792 o
0 3 11 1210.950 1329.270 38.350 9.549 o
0 3 12 267.514 275.651 18.990 88.373 o
0 3 13 2011.700 2162.810 81.156 3.356 o
0 3 14 118.990 135.551 25.789 95.608 o
0 3 15 1636.550 1728.000 150.919 2.362 o
0 3 16 14.367 75.364 66.700 18.338 o
0 4 0 5027.250 5515.090 94.900 0.723 o
0 4 1 1556.180 1611.100 21.284 7.263 o
0 4 2 7744.650 7791.180 125.391 0.335 o
0 4 3 1240.880 1351.770 35.087 9.498 o
0 4 4 7267.050 7628.670 131.819 0.364 o
0 4 5 1.290 9.662 6.835 1604.040 o
0 4 6 5351.570 5856.870 221.150 0.493 o
0 4 7 269.470 271.944 14.015 107.240 o
0 4 8 1945.270 1874.450 40.217 4.744 o
0 4 9 27.487 32.399 10.070 600.610 o
0 4 10 1364.820 1441.830 69.275 6.114 o
0 4 11 264.374 283.936 18.215 90.985 o
0 4 12 1695.660 1908.240 66.101 4.619 o
0 4 13 22.413 5.188 30.583 86.260 o
0 4 14 1241.980 1346.100 68.994 6.758 o
0 4 15 23.673 71.786 36.130 60.764 o
0 4 16 618.410 665.262 131.424 4.233 o
0 5 1 3487.350 3443.550 47.335 1.630 o
0 5 2 390.838 406.043 8.296 75.623 o
0 5 3 5213.370 5097.310 68.937 0.755 o
0 5 4 4.943 1.646 4.389 3487.510 o
0 5 5 8642.480 9333.640 193.445 0.244 o
0 5 6 1133.650 1240.700 31.121 11.267 o
0 5 7 4207.690 4440.810 82.057 1.041 o
0 5 8 62.663 89.463 11.264 364.581 o
0 5 9 974.514 945.240 30.300 15.185 o
0 5 10 56.460 56.127 16.959 227.292 o
0 5 11 2021.240 2030.060 61.704 3.894 o
0 5 12 698.986 782.864 45.466 17.067 o
0 5 13 1234.280 1322.020 82.322 5.855 o
0 5 14 32.444 13.114 25.972 116.653 o
0 5 15 1043.270 1074.130 59.158 9.398 o
0 5 16 90.453 136.275 47.623 33.935 o
0 6 0 256.993 206.199 13.977 121.782 o
0 6 1 1187.670 1315.110 20.001 11.210 o
0 6 2 96.656 70.508 6.031 504.276 o
0 6 3 90.558 92.666 5.430 507.295 o
0 6 4 7405.640 7639.110 102.637 0.366 o
0 6 5 412.137 425.170 14.668 62.396 o
0 6 6 3624.560 3677.690 69.483 1.427 o
0 6 7 542.568 562.584 22.589 36.841 o
0 6 8 1944.070 1898.460 44.202 4.625 o
0 6 9 512.980 508.165 30.384 33.505 o
0 6 10 5276.210 5159.410 116.747 0.684 o
0 6 11 42.815 47.817 16.677 245.740 o
0 6 12 3337.110 3509.260 97.377 1.479 o
0 6 13 42.974 62.538 23.635 132.207 o
0 6 14 330.895 423.343 33.653 40.794 o
0 6 15 14.006 31.245 44.934 40.329 o
0 7 1 1565.470 1549.720 22.646 7.341 o
0 7 2 1.258 7.592 4.730 3145.360 o
0 7 3 8348.140 8935.780 119.530 0.282 o
0 7 4 98.420 109.319 6.409 425.201 o
0 7 5 4512.410 4477.930 66.730 0.980 o
0 7 6 575.206 613.970 23.557 33.123 o
0 7 7 1864.990 1868.330 42.248 4.935 o
0 7 8 69.126 58.057 12.906 322.250 o
0 7 9 2553.750 2425.850 54.053 2.846 o
0 7 10 527.741 529.163 29.092 33.417 o
0 7 11 646.255 641.400 29.415 26.428 o
0 7 12 45.426 32.156 21.533 159.708 o
0 7 13 2124.910 1861.330 81.778 3.398 o
0 7 14 0.345 12.576 31.449 82.869 o
0 7 15 332.126 394.194 40.578 32.951 o
0 8 0 1759.600 1655.520 34.621 5.849 o
0 8 1 16.706 13.237 5.716 1615.700 o
0 8 2 6687.690 7161.000 92.791 0.436 o
0 8 3 210.859 242.276 9.327 159.869 o
0 8 4 2539.480 2388.890 34.822 3.073 o
0 8 5 1276.060 1317.720 23.896 10.119 o
0 8 6 1586.150 1527.120 28.904 7.087 o
0 8 7 10.029 6.319 12.170 520.596 o
0 8 8 4352.280 4205.190 82.383 1.033 o
0 8 9 15.734 20.036 15.850 303.378 o
0 8 10 1577.900 1513.840 47.725 6.366 o
0 8 11 165.193 197.387 25.683 84.872 o
0 8 12 657.457 739.446 43.674 18.719 o
0 8 13 0.001 -3.377 27.179 111.514 o
0 8 14 1188.960 1147.430 75.906 6.774 o
0 8 15 29.377 74.554 38.616 53.208 o
0 9 1 7429.730 8054.080 104.362 0.352 o
0 9 2 58.821 65.509 8.478 534.979 o
0 9 3 5157.620 5239.680 70.097 0.751 o
0 9 4 28.366 19.796 6.534 1118.210 o
0 9 5 3475.550 3508.080 47.385 1.619 o
0 9 6 255.957 268.330 12.736 117.251 o
0 9 7 649.396 603.736 21.993 30.800 o
0 9 8 36.966 11.719 16.297 274.053 o
0 9 9 868.334 787.010 35.537 17.126 o
0 9 10 28.882 32.173 25.820 117.086 o
0 9 11 2069.230 1981.960 67.255 3.722 o
0 9 12 0.310 17.474 29.507 93.874 o
0 9 13 81.942 73.552 39.885 48.386 o
0 9 14 0.000 25.364 43.107 44.102 o
0 10 0 4605.010 4790.860 96.787 0.869 o
0 10 1 11.344 25.633 7.750 1041.890 o
0 10 2 2410.000 2360.860 38.269 3.264 o
0 10 3 130.268 163.429 9.688 252.926 o
0 10 4 1396.310 1349.410 23.688 9.028 o
0 10 5 119.221 126.627 9.039 302.266 o
0 10 6 1594.220 1525.820 28.025 7.080 o
0 10 7 450.956 468.386 21.983 46.727 o
0 10 8 2215.620 2190.200 54.686 3.521 o
0 10 9 53.031 69.558 21.750 149.432 o
0 10 10 3123.240 3034.310 86.108 1.787 o
0 10 11 13.156 -2.857 28.895 97.485 o
0 10 12 921.658 784.113 48.523 13.375 o
0 10 13 59.606 58.401 48.193 34.298 o
0 10 14 83.067 27.214 44.809 39.315 o
0 11 1 4107.120 4300.660 63.110 1.133 o
0 11 2 346.843 404.300 14.340 74.299 o
0 11 3 3483.800 3489.950 50.609 1.609 o
0 11 4 159.650 180.287 10.767 203.622 o
0 11 5 751.168 756.463 19.305 24.940 o
0 11 6 181.404 200.636 11.464 174.649 o
0 11 7 905.406 856.077 25.630 18.058 o
0 11 8 155.581 158.854 18.128 138.571 o
0 11 9 1439.760 1356.970 46.166 7.452 o
0 11 10 41.424 37.486 37.430 56.739 o
0 11 11 1357.150 1345.150 63.992 6.670 o
0 11 12 43.905 10.111 45.534 38.970 o
0 11 13 533.073 514.397 63.520 14.589 o
0 12 0 3577.940 3640.380 71.917 1.448 o
0 12 1 1.837 7.157 9.593 856.979 o
0 12 2 3358.890 3381.600 52.515 1.707 o
0 12 3 60.667 67.436 10.141 438.390 o
0 12 4 1745.880 1703.730 30.293 5.927 o
0 12 5 304.731 326.629 14.160 90.678 o
0 12 6 2078.800 1952.320 35.192 4.384 o
0 12 7 39.009 50.215 15.265 286.403 o
0 12 8 1132.820 1191.510 41.569 10.418 o
0 12 9 34.408 37.552 24.509 127.705 o
0 12 10 841.581 892.182 72.556 9.216 o
0 12 11 18.061 16.817 38.058 56.065 o
0 12 12 378.176 334.685 47.823 25.894 o
0 12 13 5.589 -39.511 46.021 38.818 o
0 13 1 1756.420 1723.510 32.306 5.796 o
0 13 2 8.539 13.608 12.606 482.434 o
0 13 3 2897.760 2942.450 44.660 2.258 o
0 13 4 359.359 366.476 16.226 71.620 o
0 13 5 1971.450 1866.010 35.808 4.775 o
0 13 6 240.272 256.522 15.906 109.772 o
0 13 7 720.153 746.756 27.288 23.418 o
0 13 8 82.220 29.605 21.823 146.031 o
0 13 9 818.748 771.528 46.642 15.119 o
0 13 10 0.073 -38.440 38.246 56.313 o
0 13 11 286.055 231.411 46.375 30.344 o
0 13 12 5.670 -41.157 45.174 40.283 o
0 14 0 282.765 317.900 24.334 66.365 o
0 14 1 116.175 126.788 15.319 195.414 o
0 14 2 989.079 998.436 28.996 14.773 o
0 14 3 249.529 298.183 17.444 95.571 o
0 14 4 4857.120 4863.520 78.155 0.837 o
0 14 5 70.806 55.727 15.422 251.564 o
0 14 6 905.268 941.854 31.417 16.110 o
0 14 7 45.614 56.169 17.215 228.652 o
0 14 8 811.443 781.858 38.677 17.310 o
0 14 9 151.015 109.284 30.221 72.510 o
0 14 10 573.759 550.118 55.735 16.747 o
0 14 11 11.226 -34.475 63.512 20.379 o
0 14 12 863.831 925.605 105.074 5.525 o
0 15 1 685.771 721.839 28.563 24.301 o
0 15 2 382.919 402.662 28.629 45.402 o
0 15 3 448.519 468.517 23.447 45.203 o
0 15 4 386.335 370.442 26.248 49.917 o
0 15 5 1855.200 1900.700 47.312 4.786 o
0 15 6 0.149 12.516 21.472 176.809 o
0 15 7 1275.860 1232.400 42.266 9.096 o
0 15 8 3.585 -15.805 27.786 106.324 o
0 15 9 531.661 507.012 34.858 29.316 o
0 15 10 8.326 -6.751 44.798 40.919 o
0 15 11 1313.240 1238.720 100.421 4.670 o
0 16 0 1141.200 1187.160 59.153 8.477 o
0 16 1 99.328 108.488 21.589 132.999 o
0 16 2 1679.330 1758.080 48.164 5.514 o
0 16 3 155.376 139.882 25.385 91.967 o
0 16 4 606.157 713.722 33.995 24.285 o
0 16 5 102.376 81.338 24.943 108.039 o
0 16 6 1658.910 1660.530 55.770 5.453 o
0 16 7 0.228 8.687 25.542 125.610 o
0 16 8 592.274 554.050 36.592 25.547 o
0 16 9 8.243 -0.212 31.186 84.159 o
0 16 10 491.248 564.423 118.708 5.264 o
0 17 1 981.313 1030.250 40.906 12.763 o
0 17 2 75.100 95.776 25.238 109.320 o
0 17 3 901.228 982.486 40.725 14.032 o
0 17 4 190.913 204.669 25.248 82.611 o
0 17 5 390.884 408.016 28.994 44.196 o
0 17 6 2.542 -14.130 24.518 136.598 o
0 17 7 1390.460 1460.050 62.288 6.426 o
0 17 8 9.970 11.929 33.770 71.463 o
0 17 9 946.936 922.524 94.002 6.273 o
0 18 0 1282.500 1296.750 73.477 6.366 o
0 18 1 20.094 3.062 26.740 112.544 o
0 18 2 750.595 814.897 37.970 18.304 o
0 18 3 0.266 -35.409 26.820 114.496 o
0 18 4 573.939 569.839 40.517 23.605 o
0 18 5 6.542 -24.320 29.601 93.490 o
0 18 6 786.816 779.684 71.575 9.965 o
0 18 7 1.276 -7.340 37.242 59.354 o
0 19 1 746.355 739.843 39.696 18.520 o
0 19 2 64.025 81.757 32.382 71.951 o
0 19 3 396.694 422.830 35.035 36.026 o
0 19 4 85.492 127.441 31.259 73.225 o
0 19 5 592.372 522.168 40.920 23.513 o
0 20 0 1786.900 1957.550 99.819 3.356 o
0 20 1 2.389 -11.590 36.089 63.162 o
0 20 2 515.746 564.338 51.849 19.043 o
1 0 0 24.194 26.366 3.898 1814.510 o
1 0 2 45353.100 42349.900 867.587 0.010 o
1 0 4 5480.510 5895.760 132.230 0.588 o
1 0 6 5810.540 6585.040 125.444 0.521 o
1 0 8 2081.580 2427.870 57.978 3.492 o
1 0 10 1579.430 1877.380 44.823 5.775 o
1 0 12 1777.970 2107.580 52.482 4.580 o
1 0 14 827.019 962.280 79.240 8.192 o
1 0 16 187.150 197.990 98.561 8.187 o
1 1 0 59.974 68.688 3.525 845.559 o
1 1 1 3452.230 3266.990 49.578 1.696 o
1 1 2 2098.610 2267.070 35.430 3.968 o
1 1 3 12949.900 12969.800 189.927 0.123 o
1 1 4 375.969 393.585 9.964 77.440 o
1 1 5 6361.350 6862.830 162.401 0.432 o
1 1 6 105.387 119.574 7.597 364.971 o
1 1 7 2812.570 3031.850 55.797 2.227 o
1 1 8 0.565 11.593 6.307 1847.350 o
1 1 9 2225.830 2563.560 52.269 3.233 o
1 1 10 274.342 298.210 21.460 76.980 o
1 1 11 3687.640 4404.500 110.666 1.122 o
1 1 12 53.218 80.595 13.428 311.480 o
1 1 13 1178.600 1311.110 59.287 7.930 o
1 1 14 13.055 93.233 28.274 96.938 o
1 1 15 221.946 213.696 56.042 23.119 o
1 1 16 3.519 -2.127 67.655 17.987 o
1 2 0 4661.960 4178.260 56.179 0.995 o
1 2 1 290.759 258.886 6.143 128.627 o
1 2 2 1123.410 1194.000 18.183 12.756 o
1 2 3 11416.800 11529.900 151.483 0.159 o
1 2 4 11272.600 12137.300 152.032 0.156 o
1 2 5 0.527 3.283 4.326 4050.120 o
1 2 6 6141.080 7014.280 164.327 0.442 o
1 2 7 485.101 536.008 19.538 44.003 o
1 2 8 1564.400 1666.040 69.337 5.148 o
1 2 9 46.069 62.552 11.434 415.423 o
1 2 10 1167.100 1219.700 47.726 9.392 o
1 2 11 9.671 -23.975 12.871 476.069 o
1 2 12 1771.920 1851.830 83.192 3.952 o
1 2 13 140.246 167.973 24.613 96.287 o
1 2 14 1120.200 1215.460 74.884 6.991 o
1 2 15 124.140 206.143 39.698 45.013 o
1 2 16 761.747 732.039 61.647 12.252 o
1 3 0 1642.280 1612.290 24.811 6.724 o
1 3 1 10605.800 9936.030 124.421 0.194 o
1 3 2 1141.770 1119.730 17.663 13.034 o
1 3 3 12.285 -0.600 3.413 3909.100 o
1 3 4 3534.200 3652.570 46.373 1.550 o
1 3 5 6029.420 6228.770 80.095 0.549 o
1 3 6 802.481 903.539 16.161 21.841 o
1 3 7 3506.840 3738.400 95.583 1.363 o
1 3 8 1923.050 2102.350 79.277 3.585 o
1 3 9 2433.600 2475.160 59.809 2.904 o
1 3 10 87.837 80.514 12.181 304.094 o
1 3 11 1236.620 1297.700 36.576 9.621 o
1 3 12 0.812 24.193 17.636 256.665 o
1 3 13 1150.000 1199.720 109.973 4.475 o
1 3 14 126.605 142.494 30.807 70.960 o
1 3 15 450.025 479.527 55.588 18.792 o
1 3 16 5.026 -28.304 42.925 44.616 o
1 4 0 4888.670 4519.540 60.980 0.889 o
1 4 1 120.713 111.489 4.686 402.458 o
1 4 2 7090.200 6718.180 85.775 0.425 o
1 4 3 258.175 225.730 7.493 147.500 o
1 4 4 10467.600 10461.800 132.311 0.191 o
1 4 5 218.022 227.993 8.290 165.736 o
1 4 6 4637.090 4770.500 63.094 0.916 o
1 4 7 342.873 339.820 11.697 86.716 o
1 4 8 1648.450 1733.460 38.056 6.023 o
1 4 9 12.957 34.833 11.454 530.113 o
1 4 10 1120.620 1115.720 63.807 8.292 o
1 4 11 1057.280 870.580 42.102 12.611 o
1 4 12 623.440 600.624 30.239 27.456 o
1 4 13 433.924 510.194 43.816 25.654 o
1 4 14 861.502 937.418 71.418 9.164 o
1 4 15 1.914 -27.104 35.397 65.671 o
1 5 0 73.657 80.595 4.503 650.537 o
1 5 1 7018.830 6658.620 81.473 0.435 o
1 5 2 901.140 955.781 15.508 18.800 o
1 5 3 4575.800 4322.700 60.066 0.994 o
1 5 4 90.501 104.300 6.143 463.923 o
1 5 5 241.243 193.121 8.220 162.628 o
1 5 6 104.755 135.827 7.432 353.600 o
1 5 7 2748.270 2769.920 48.004 2.471 o
1 5 8 6.352 22.541 11.359 577.279 o
1 5 9 2609.500 2650.730 55.927 2.624 o
1 5 10 38.964 21.581 16.908 251.851 o
1 5 11 862.220 930.009 37.299 15.648 o
1 5 12 327.660 326.244 23.326 63.140 o
1 5 13 739.117 752.064 40.959 18.125 o
1 5 14 20.530 57.343 30.471 85.000 o
1 5 15 1010.830 1048.370 73.338 7.936 o
1 6 0 2074.670 1896.230 26.023 4.606 o
1 6 1 438.009 457.641 9.939 62.205 o
1 6 2 5381.320 5180.980 70.757 0.717 o
1 6 3 182.541 205.120 8.222 199.211 o
1 6 4 1312.850 1210.200 20.414 10.471 o
1 6 5 8.440 6.297 5.577 2060.490 o
1 6 6 2871.240 2788.390 40.177 2.383 o
1 6 7 42.521 41.572 8.620 642.888 o
1 6 8 1768.890 1710.290 37.572 5.628 o
1 6 9 382.735 409.622 20.343 58.118 o
1 6 10 881.827 768.015 45.110 14.706 o
1 6 11 15.700 42.428 19.757 196.078 o
1 6 12 1682.400 1599.080 71.338 4.840 o
1 6 13 167.923 200.368 34.104 55.626 o
1 6 14 1158.160 1242.310 104.214 4.743 o
1 6 15 28.130 -57.843 37.830 56.680 o
1 7 0 121.910 132.905 6.183 347.650 o
1 7 1 4275.730 4243.310 54.099 1.103 o
1 7 2 127.041 134.433 7.053 321.070 o
1 7 3 1217.850 1085.590 22.344 11.964 o
1 7 4 45.684 39.438 6.697 818.122 o
1 7 5 1489.030 1453.210 25.977 7.951 o
1 7 6 0.680 1.716 6.996 1644.230 o
1 7 7 1339.050 1210.400 25.206 9.959 o
1 7 8 99.308 104.499 12.747 262.973 o
1 7 9 2118.500 2055.970 45.455 3.996 o
1 7 10 13.263 -8.476 17.951 247.801 o
1 7 11 1287.060 1250.210 63.400 7.207 o
1 7 12 6.461 6.976 57.719 24.671 o
1 7 13 363.778 366.251 33.474 40.816 o
1 7 14 28.430 21.539 36.325 60.962 o
1 7 15 1323.560 1135.180 84.899 5.692 o
1 8 0 7766.830 8195.040 97.477 0.331 o
1 8 1 631.198 671.016 13.983 33.673 o
1 8 2 5813.990 5627.550 71.156 0.618 o
1 8 3 220.584 221.724 9.221 160.802 o
1 8 4 4365.080 4423.790 62.958 1.034 o
1 8 5 311.942 304.577 12.845 95.314 o
1 8 6 1692.650 1646.100 29.549 6.286 o
1 8 7 207.003 223.280 11.817 151.505 o
1 8 8 2201.520 1987.720 42.483 3.942 o
1 8 9 5.320 40.946 16.214 290.831 o
1 8 10 1902.430 1735.640 52.630 4.736 o
1 8 11 30.659 28.215 27.213 105.984 o
1 8 12 528.636 492.919 46.062 22.364 o
1 8 13 1.171 -2.605 36.305 62.458 o
1 8 14 457.380 371.716 52.783 20.890 o
1 9 0 14.094 18.284 6.249 1438.040 o
1 9 1 5785.940 5896.390 74.839 0.602 o
1 9 2 959.344 910.783 18.770 17.589 o
1 9 3 4549.510 4410.640 60.344 0.989 o
1 9 4 63.685 69.083 8.773 495.924 o
1 9 5 1832.060 1764.910 31.531 5.464 o
1 9 6 2.664 -0.825 8.988 995.081 o
1 9 7 2721.840 2621.180 43.149 2.617 o
1 9 8 671.236 581.116 21.714 30.474 o
1 9 9 1208.160 1175.690 36.223 10.387 o
1 9 10 64.967 71.978 23.832 124.803 o
1 9 11 995.180 857.196 77.084 7.981 o
1 9 12 13.478 24.423 36.599 60.582 o
1 9 13 884.145 902.290 68.619 9.553 o
1 9 14 1.746 -26.762 39.901 51.700 o
1 10 0 2360.890 2420.740 35.592 3.322 o
1 10 1 62.790 87.743 8.186 498.411 o
1 10 2 4246.340 4389.560 58.135 1.083 o
1 10 3 33.953 35.962 7.600 815.955 o
1 10 4 1345.080 1313.850 25.322 9.476 o
1 10 5 3.626 1.035 8.048 1213.300 o
1 10 6 1061.690 997.915 24.953 14.270 o
1 10 7 75.518 52.348 11.505 365.762 o
1 10 8 2171.380 2069.350 43.731 3.900 o
1 10 9 50.789 42.122 21.586 156.003 o
1 10 10 1509.340 1252.490 53.683 6.900 o
1 10 11 32.626 24.367 30.800 83.598 o
1 10 12 979.421 863.653 56.967 10.900 o
1 10 13 1.962 35.780 47.425 36.377 o
1 10 14 1225.380 1289.770 75.336 6.438 o
1 11 0 530.316 612.296 17.008 40.015 o
1 11 1 2075.460 2095.570 32.655 4.256 o
1 11 2 35.874 59.172 9.103 593.663 o
1 11 3 3743.580 3798.500 52.557 1.395 o
1 11 4 0.006 -11.887 8.865 1048.130 o
1 11 5 2161.720 2068.670 33.698 4.071 o
1 11 6 41.668 48.042 11.870 418.146 o
1 11 7 751.014 715.644 27.724 22.830 o
1 11 8 0.029 5.277 17.509 266.967 o
1 11 9 2469.060 2237.910 72.928 2.835 o
1 11 10 0.017 4.516 30.812 86.616 o
1 11 11 782.677 731.047 56.164 13.354 o
1 11 12 0.634 -84.592 41.816 47.099 o
1 11 13 502.084 409.038 56.387 18.209 o
1 12 0 2234.570 2285.290 34.558 3.682 o
1 12 1 931.756 946.838 22.353 17.236 o
1 12 2 3172.990 3189.710 51.246 1.899 o
1 12 3 544.491 557.217 18.118 40.157 o
1 12 4 1800.620 1731.600 31.166 5.644 o
1 12 5 1.116 -6.506 10.916 686.505 o
1 12 6 932.658 844.865 28.445 17.072 o
1 12 7 247.040 253.952 17.918 99.342 o
1 12 8 1743.760 1579.070 39.452 5.906 o
1 12 9 177.588 161.828 30.889 65.559 o
1 12 10 979.148 914.013 52.130 11.498 o
1 12 11 4.896 -45.537 42.745 44.995 o
1 12 12 693.872 663.061 59.285 13.728 o
1 13 0 307.633 352.983 16.177 81.829 o
1 13 1 2313.980 2313.950 39.340 3.454 o
1 13 2 25.855 30.162 11.295 512.023 o
1 13 3 1890.160 1859.720 33.339 5.076 o
1 13 4 6.981 4.846 12.054 540.301 o
1 13 5 2225.460 2231.730 40.244 3.681 o
1 13 6 544.017 544.328 22.261 37.531 o
1 13 7 2731.440 2530.460 62.844 2.491 o
1 13 8 6.462 32.484 25.651 121.899 o
1 13 9 790.562 776.153 55.928 13.115 o
1 13 10 17.125 25.275 42.106 45.852 o
1 13 11 475.595 540.490 55.456 18.135 o
1 13 12 13.764 -16.171 102.724 7.799 o
1 14 0 910.954 895.191 28.340 17.030 o
1 14 1 94.022 97.510 15.546 215.837 o
1 14 2 369.981 398.582 19.602 61.495 o
1 14 3 284.409 304.373 21.262 75.575 o
1 14 4 518.326 532.745 23.857 38.092 o
1 14 5 8.636 -4.460 17.243 271.072 o
1 14 6 2176.540 2019.560 51.081 3.814 o
1 14 7 9.033 33.375 29.172 94.548 o
1 14 8 491.731 473.704 37.709 29.061 o
1 14 9 10.764 50.412 33.638 70.985 o
1 14 10 577.611 525.045 56.940 16.396 o
1 14 11 0.945 -84.853 63.484 20.436 o
1 15 0 0.230 35.854 17.393 260.176 o
1 15 1 1456.940 1516.700 39.761 7.313 o
1 15 2 106.877 130.962 18.340 160.362 o
1 15 3 1047.470 1092.380 36.086 12.392 o
1 15 4 5.877 3.973 18.987 224.776 o
1 15 5 582.979 569.036 27.339 31.364 o
1 15 6 8.460 -9.813 20.647 190.358 o
1 15 7 1691.560 1675.060 61.995 5.086 o
1 15 8 133.475 115.643 29.869 75.238 o
1 15 9 579.870 541.799 49.797 19.161 o
1 15 10 1.367 65.194 52.506 29.588 o
1 16 0 1598.630 1652.220 50.442 5.895 o
1 16 1 113.500 148.697 23.322 111.032 o
1 16 2 812.157 860.897 43.300 15.458 o
1 16 3 101.610 110.606 22.245 126.281 o
1 16 4 1343.130 1374.050 45.900 7.947 o
1 16 5 2.464 1.075 23.577 147.601 o
1 16 6 181.134 179.828 25.054 86.682 o
1 16 7 2.766 16.976 26.785 113.463 o
1 16 8 628.602 607.012 52.380 16.946 o
1 16 9 11.392 86.285 46.176 37.825 o
1 17 0 4.045 10.552 27.548 107.545 o
1 17 1 1141.840 1301.710 49.665 9.089 o
1 17 2 29.965 18.998 25.437 121.314 o
1 17 3 836.705 900.666 40.421 15.528 o
1 17 4 151.796 158.064 30.479 69.310 o
1 17 5 1510.990 1495.810 56.937 6.205 o
1 17 6 108.252 87.801 29.390 81.136 o
1 17 7 117.366 164.351 35.797 55.080 o
1 17 8 111.185 23.224 48.476 33.401 o
1 18 0 1087.630 1248.960 57.164 8.818 o
1 18 1 4.303 -2.951 27.567 107.936 o
1 18 2 596.694 665.643 39.568 22.426 o
1 18 3 34.911 130.085 35.065 62.383 o
1 18 4 480.191 568.640 44.366 23.567 o
1 18 5 3.686 -26.785 30.880 86.140 o
1 18 6 1018.200 1076.910 63.011 9.055 o
1 19 0 2.060 6.114 33.908 71.407 o
1 19 1 202.407 214.441 37.173 46.543 o
1 19 2 66.457 59.461 36.597 57.756 o
1 19 3 552.817 545.558 40.228 24.590 o
1 19 4 0.395 -34.507 34.166 70.552 o
2 0 0 1827.660 1679.430 41.450 5.367 o
2 0 2 5241.980 4843.170 112.919 0.719 o
2 0 4 6961.560 6661.110 143.904 0.408 o
2 0 6 459.309 406.707 22.292 48.166 o
2 0 8 2573.340 2564.900 59.349 2.681 o
2 0 10 4596.490 4826.610 101.342 0.859 o
2 0 12 1287.310 1153.710 51.882 8.432 o
2 0 14 394.239 378.477 57.994 18.911 o
2 1 0 1689.580 1578.310 26.273 6.541 o
2 1 1 6613.300 5952.850 90.583 0.497 o
2 1 2 925.434 869.291 28.484 16.973 o
2 1 3 5064.860 4718.050 69.077 0.820 o
2 1 4 20.860 53.178 8.247 768.876 o
2 1 5 3655.290 3545.630 57.721 1.482 o
2 1 6 182.586 176.357 10.097 194.232 o
2 1 7 138.170 149.320 10.438 240.860 o
2 1 8 89.404 105.890 11.731 297.313 o
2 1 9 835.696 861.030 23.205 20.057 o
2 1 10 14.592 48.035 15.287 310.887 o
2 1 11 1336.240 1309.150 39.032 8.676 o
2 1 12 24.469 16.742 19.920 194.694 o
2 1 13 1065.910 1039.590 34.786 12.658 o
2 1 14 5.781 19.124 44.637 41.101 o
2 1 15 470.830 486.396 47.559 22.698 o
2 2 0 4958.760 4380.180 64.118 0.885 o
2 2 1 719.025 682.663 17.025 28.200 o
2 2 2 3910.890 3650.110 57.549 1.341 o
2 2 3 28.039 38.709 5.599 1169.780 o
2 2 4 167.695 149.096 7.449 247.816 o
2 2 5 1339.440 1260.490 25.338 9.737 o
2 2 6 1223.900 1135.470 25.170 11.405 o
2 2 7 9.885 5.708 10.573 677.677 o
2 2 8 3232.370 3088.850 51.218 1.893 o
2 2 9 4.405 4.725 11.315 618.691 o
2 2 10 2967.290 2910.510 53.847 2.156 o
2 2 11 0.000 7.692 14.082 409.424 o
2 2 12 781.101 784.195 33.831 19.281 o
2 2 13 112.613 124.836 20.252 139.390 o
2 2 14 298.781 271.256 34.201 45.692 o
2 2 15 233.597 180.898 47.138 31.253 o
2 3 0 364.527 393.142 12.531 75.496 o
2 3 1 1313.810 1171.050 21.193 10.603 o
2 3 2 15.393 14.401 4.922 1964.570 o
2 3 3 10065.800 9696.070 123.843 0.211 o
2 3 4 531.308 481.027 12.714 48.099 o
2 3 5 720.003 652.602 15.131 29.406 o
2 3 6 704.776 698.668 17.158 28.411 o
2 3 7 3040.760 2901.510 42.476 2.159 o
2 3 8 198.818 207.893 12.660 153.583 o
2 3 9 1198.370 1110.360 29.510 11.424 o
2 3 10 126.466 113.489 14.201 209.383 o
2 3 11 805.786 789.520 26.009 20.955 o
2 3 12 32.624 49.598 17.133 240.991 o
2 3 13 394.048 425.354 23.784 50.817 o
2 3 14 186.222 218.843 35.299 51.171 o
2 3 15 959.577 939.194 80.868 7.524 o
2 4 0 2583.030 2345.150 37.276 3.021 o
2 4 1 494.569 469.553 12.733 52.233 o
2 4 2 2072.780 1886.480 31.297 4.548 o
2 4 3 499.381 487.681 13.433 50.254 o
2 4 4 5935.230 5463.800 76.198 0.609 o
2 4 5 868.832 813.110 17.670 20.983 o
2 4 6 5125.150 4871.070 66.062 0.796 o
2 4 7 432.690 455.341 15.315 57.160 o
2 4 8 1673.790 1594.000 31.825 6.413 o
2 4 9 2.038 2.382 10.249 766.544 o
2 4 10 1053.730 1056.450 27.634 13.640 o
2 4 11 79.320 71.439 15.989 226.794 o
2 4 12 1038.260 1017.540 33.084 13.361 o
2 4 13 134.577 76.033 23.780 110.855 o
2 4 14 310.150 399.302 43.714 30.320 o
2 4 15 98.037 59.236 54.854 26.311 o
2 5 0 36.604 40.119 5.994 986.502 o
2 5 1 4312.100 4107.560 58.422 1.106 o
2 5 2 13.595 15.790 5.799 1633.360 o
2 5 3 3396.590 3199.780 46.980 1.761 o
2 5 4 55.781 89.136 7.783 541.960 o
2 5 5 8241.770 7876.000 107.671 0.313 o
2 5 6 354.135 375.195 14.016 76.193 o
2 5 7 1982.010 1776.260 32.169 4.946 o
2 5 8 256.838 228.266 13.079 122.356 o
2 5 9 1247.050 1140.960 26.837 11.010 o
2 5 10 195.167 196.796 18.069 119.958 o
2 5 11 605.107 595.209 26.143 30.614 o
2 5 12 0.922 -5.838 20.746 191.094 o
2 5 13 925.238 933.299 46.793 12.874 o
2 5 14 53.033 -34.846 56.108 25.805 o
2 6 0 5561.620 5375.940 71.352 0.672 o
2 6 1 254.238 267.975 9.415 131.766 o
2 6 2 1990.630 1833.940 29.958 4.874 o
2 6 3 189.597 195.133 9.521 187.210 o
2 6 4 2356.680 2160.560 34.882 3.565 o
2 6 5 43.643 52.110 8.597 615.194 o
2 6 6 2055.030 1892.360 33.233 4.556 o
2 6 7 22.536 15.113 10.555 608.609 o
2 6 8 1415.020 1352.660 28.963 8.620 o
2 6 9 86.001 69.141 12.604 302.097 o
2 6 10 384.247 392.733 19.973 59.518 o
2 6 11 0.050 -1.770 17.662 264.041 o
2 6 12 466.861 443.929 27.463 40.283 o
2 6 13 93.712 81.793 35.577 59.015 o
2 6 14 964.365 970.905 60.772 10.028 o
2 7 0 321.960 294.491 11.508 97.716 o
2 7 1 3522.800 3414.720 43.996 1.628 o
2 7 2 566.219 485.454 13.377 44.439 o
2 7 3 1929.210 1851.110 32.857 4.979 o
2 7 4 0.695 0.297 7.579 1418.460 o
2 7 5 2703.980 2504.860 43.403 2.706 o
2 7 6 46.933 30.653 9.745 557.327 o
2 7 7 3131.160 2887.640 46.879 2.067 o
2 7 8 2.086 -0.563 11.423 623.792 o
2 7 9 940.718 855.040 27.929 16.934 o
2 7 10 0.025 3.429 15.506 340.762 o
2 7 11 930.820 815.804 39.673 14.962 o
2 7 12 8.119 37.642 33.585 71.678 o
2 7 13 744.336 717.954 56.583 13.691 o
2 7 14 16.559 65.375 44.090 41.508 o
2 8 0 6133.080 5997.220 83.669 0.548 o
2 8 1 579.539 579.666 16.216 38.337 o
2 8 2 3504.950 3448.860 45.438 1.625 o
2 8 3 15.509 16.537 7.813 1033.270 o
2 8 4 1476.910 1343.620 25.464 8.400 o
2 8 5 227.671 223.094 12.039 140.445 o
2 8 6 1803.020 1665.600 32.389 5.727 o
2 8 7 21.017 10.454 13.166 424.475 o
2 8 8 1330.270 1233.820 31.824 9.501 o
2 8 9 14.747 27.246 14.769 342.341 o
2 8 10 708.046 721.229 27.520 24.060 o
2 8 11 29.216 20.210 23.614 139.733 o
2 8 12 448.455 387.319 38.411 31.328 o
2 8 13 0.105 9.374 57.557 24.840 o
2 9 0 11.218 17.845 8.102 1012.720 o
2 9 1 1454.890 1415.210 24.496 8.350 o
2 9 2 1325.160 1301.510 22.903 9.821 o
2 9 3 1995.270 1927.250 31.586 4.699 o
2 9 4 73.146 87.636 10.267 382.882 o
2 9 5 1521.250 1384.640 27.942 7.883 o
2 9 6 59.669 65.426 11.588 379.194 o
2 9 7 1770.820 1566.450 35.341 5.957 o
2 9 8 43.672 17.426 16.237 268.118 o
2 9 9 1979.090 1773.270 40.741 4.780 o
2 9 10 151.805 156.692 25.079 92.818 o
2 9 11 582.311 577.930 36.238 25.696 o
2 9 12 0.714 -38.631 39.636 52.417 o
2 9 13 949.319 887.811 111.126 4.973 o
2 10 0 4039.600 3979.920 66.721 1.204 o
2 10 1 1.872 9.230 9.720 828.772 o
2 10 2 3106.650 2988.390 43.546 2.061 o
2 10 3 41.263 29.073 9.618 591.439 o
2 10 4 384.056 404.321 16.058 65.489 o
2 10 5 32.126 35.781 12.906 396.018 o
2 10 6 561.110 559.273 21.741 36.498 o
2 10 7 30.805 15.108 15.602 300.128 o
2 10 8 974.617 880.615 37.909 14.279 o
2 10 9 19.074 28.341 19.051 211.455 o
2 10 10 663.603 671.264 32.604 23.928 o
2 10 11 7.584 20.082 34.770 67.379 o
2 10 12 503.492 481.262 54.972 18.373 o
2 10 13 45.489 70.304 52.128 29.546 o
2 11 0 916.588 921.496 24.579 17.392 o
2 11 1 1714.370 1628.680 31.813 6.165 o
2 11 2 446.817 436.657 16.985 54.589 o
2 11 3 307.441 319.097 14.675 89.453 o
2 11 4 346.269 336.843 15.961 76.806 o
2 11 5 1072.430 1039.690 28.681 13.374 o
2 11 6 21.321 1.499 16.123 297.136 o
2 11 7 1336.540 1255.480 38.957 8.861 o
2 11 8 3.671 3.037 19.299 218.878 o
2 11 9 234.349 239.737 23.353 81.146 o
2 11 10 105.704 147.256 24.227 106.498 o
2 11 11 1606.650 1393.540 73.186 5.228 o
2 11 12 13.856 -2.921 49.885 32.962 o
2 12 0 1531.520 1528.320 32.977 7.211 o
2 12 1 1370.500 1275.230 30.853 9.104 o
2 12 2 1534.070 1478.100 36.846 7.158 o
2 12 3 0.142 4.913 13.405 453.512 o
2 12 4 1735.770 1620.110 39.974 5.841 o
2 12 5 575.082 511.870 23.925 35.464 o
2 12 6 1281.930 1224.190 37.599 9.472 o
2 12 7 15.301 43.265 21.892 161.820 o
2 12 8 708.701 716.234 33.016 21.975 o
2 12 9 10.524 -37.567 25.936 121.014 o
2 12 10 551.207 525.887 45.218 22.043 o
2 12 11 14.637 -32.882 44.015 42.276 o
2 13 0 364.007 370.481 19.082 64.973 o
2 13 1 977.493 954.600 30.545 15.027 o
2 13 2 42.710 35.681 15.399 285.689 o
2 13 3 708.149 725.025 28.493 23.625 o
2 13 4 2.559 -2.823 15.499 340.207 o
2 13 5 969.010 913.925 36.487 14.394 o
2 13 6 72.165 70.830 22.006 141.164 o
2 13 7 976.375 998.378 48.192 11.791 o
2 13 8 5.950 -26.170 28.410 101.500 o
2 13 9 1207.030 1032.120 57.480 8.719 o
2 13 10 6.469 0.308 39.571 52.441 o
2 13 11 311.074 300.306 57.731 20.465 o
2 14 0 1303.620 1304.620 36.265 9.118 o
2 14 1 238.561 250.839 19.492 94.849 o
2 14 2 502.219 510.868 24.345 39.271 o
2 14 3 23.704 31.948 22.418 154.042 o
2 14 4 1170.100 1092.780 37.972 10.919 o
2 14 5 160.831 117.753 26.495 87.167 o
2 14 6 1270.630 1248.010 49.173 8.488 o
2 14 7 78.250 46.955 26.066 106.659 o
2 14 8 1036.880 907.414 47.510 11.759 o
2 14 9 1.747 42.832 40.525 49.612 o
2 14 10 445.474 430.754 52.180 20.957 o
2 15 0 176.255 244.378 38.624 44.279 o
2 15 1 664.230 692.068 37.808 21.376 o
2 15 2 0.011 3.073 26.216 119.656 o
2 15 3 995.223 973.868 37.933 13.417 o
2 15 4 5.943 7.750 22.134 165.615 o
2 15 5 843.222 874.049 40.822 15.531 o
2 15 6 0.510 13.401 28.319 102.021 o
2 15 7 381.855 343.259 33.777 40.078 o
2 15 8 64.754 101.706 44.305 39.774 o
2 15 9 655.387 660.545 56.072 15.061 o
2 16 0 485.178 550.880 32.787 31.812 o
2 16 1 90.085 83.601 26.049 102.269 o
2 16 2 888.358 923.256 41.610 14.399 o
2 16 3 0.082 -16.111 24.748 134.484 o
2 16 4 1552.800 1540.520 56.558 5.986 o
2 16 5 22.902 44.041 33.332 71.765 o
2 16 6 1608.400 1444.140 67.109 5.445 o
2 16 7 47.871 90.217 45.395 38.417 o
2 16 8 197.795 197.432 54.824 24.438 o
2 17 0 17.122 -20.139 29.378 94.003 o
2 17 1 1054.450 1031.480 47.747 11.004 o
2 17 2 8.861 12.085 39.388 52.708 o
2 17 3 1377.450 1391.980 65.742 6.384 o
2 17 4 59.904 59.999 37.305 55.961 o
2 17 5 609.424 617.896 46.976 19.281 o
2 17 6 185.109 148.268 42.375 39.242 o
2 18 0 369.063 439.811 45.419 26.831 o
2 18 1 35.641 28.716 35.541 63.144 o
2 18 2 1111.570 1121.380 60.919 8.639 o
2 18 3 51.955 142.309 39.096 50.069 o
2 18 4 619.411 625.871 46.884 19.084 o
2 19 0 18.283 -89.314 50.843 31.693 o
2 19 1 857.410 751.495 121.139 4.555 o
3 0 0 3540.950 3523.940 73.703 1.487 o
3 0 2 4013.070 3705.420 77.274 1.236 o
3 0 4 5161.160 5019.520 115.439 0.714 o
3 0 6 1283.820 1189.480 43.857 9.053 o
3 0 8 530.254 560.860 47.309 21.021 o
3 0 10 187.616 236.782 29.557 65.621 o
3 0 12 530.487 585.373 69.755 12.502 o
3 1 0 204.888 388.990 49.063 27.770 o
3 1 1 2058.110 1920.230 34.168 4.495 o
3 1 2 318.911 694.305 45.892 24.743 o
3 1 3 3001.800 2834.560 46.550 2.202 o
3 1 4 124.727 194.450 49.042 31.069 o
3 1 5 1535.990 1406.250 29.532 7.665 o
3 1 6 7.368 66.625 21.950 159.997 o
3 1 7 2657.780 2545.210 49.672 2.685 o
3 1 8 117.022 144.048 18.647 150.499 o
3 1 9 766.595 759.553 30.013 21.085 o
3 1 10 72.040 152.356 18.972 162.613 o
3 1 11 474.392 518.385 31.959 33.628 o
3 1 12 16.646 34.134 26.918 109.600 o
3 1 13 556.986 518.368 39.064 25.541 o
3 2 0 2721.770 2581.310 43.651 2.637 o
3 2 1 23.726 37.768 27.354 105.204 o
3 2 2 6615.310 6166.950 96.333 0.483 o
3 2 3 153.480 191.558 16.053 151.015 o
3 2 4 1607.220 1527.580 31.446 6.890 o
3 2 5 17.558 79.278 13.053 377.112 o
3 2 6 513.191 527.936 20.985 41.007 o
3 2 7 32.590 74.278 18.178 210.970 o
3 2 8 455.904 488.209 20.558 47.151 o
3 2 9 314.255 372.582 26.070 56.292 o
3 2 10 724.357 716.579 31.036 22.328 o
3 2 11 0.026 45.136 32.553 76.460 o
3 2 12 562.492 550.637 34.873 27.549 o
3 2 13 54.008 105.888 38.127 53.069 o
3 3 0 411.829 552.602 26.421 41.465 o
3 3 1 3792.310 3615.320 57.169 1.402 o
3 3 2 71.861 92.107 15.811 228.310 o
3 3 3 507.602 488.040 16.862 46.543 o
3 3 4 4.345 28.531 10.401 671.648 o
3 3 5 1669.600 1578.470 29.000 6.554 o
3 3 6 3.824 31.023 12.425 486.177 o
3 3 7 838.731 826.496 25.015 19.970 o
3 3 8 87.322 122.528 16.217 200.880 o
3 3 9 2582.200 2395.050 51.106 2.860 o
3 3 10 0.104 72.202 20.398 185.002 o
3 3 11 671.578 693.124 32.531 23.439 o
3 3 12 8.999 16.725 29.991 90.233 o
3 3 13 234.135 202.502 40.764 39.298 o
3 4 0 4200.130 4153.310 72.931 1.106 o
3 4 1 33.273 52.573 9.407 593.558 o
3 4 2 969.642 896.478 20.700 17.247 o
3 4 3 1.485 21.545 8.182 1079.030 o
3 4 4 658.434 588.457 18.115 32.632 o
3 4 5 172.519 184.785 11.674 183.490 o
3 4 6 2283.210 2056.630 35.832 3.797 o
3 4 7 583.702 564.352 20.318 36.034 o
3 4 8 1893.680 1725.850 38.542 5.156 o
3 4 9 5.755 39.458 17.922 241.359 o
3 4 10 614.093 639.925 31.102 26.640 o
3 4 11 8.640 57.432 25.705 119.229 o
3 4 12 533.971 549.565 35.830 27.850 o
3 4 13 10.117 6.569 41.425 47.718 o
3 5 0 28.159 57.296 9.508 596.482 o
3 5 1 2059.800 1937.930 35.755 4.441 o
3 5 2 166.256 184.992 11.650 187.855 o
3 5 3 1235.090 1124.790 26.083 11.271 o
3 5 4 212.738 208.025 12.698 146.589 o
3 5 5 542.580 535.028 20.436 39.297 o
3 5 6 424.357 419.511 18.297 56.184 o
3 5 7 2176.950 2030.950 41.028 3.972 o
3 5 8 67.614 74.079 14.490 269.169 o
3 5 9 1445.600 1328.980 37.288 8.036 o
3 5 10 15.506 15.048 24.588 132.308 o
3 5 11 689.757 680.203 36.376 21.522 o
3 5 12 86.056 60.760 35.142 61.287 o
3 5 13 112.737 102.917 43.872 39.388 o
3 6 0 835.675 806.665 21.269 21.181 o
3 6 1 286.285 281.847 13.195 104.042 o
3 6 2 634.955 643.593 20.129 31.474 o
3 6 3 34.864 45.769 9.834 566.994 o
3 6 4 1746.140 1628.730 31.640 6.040 o
3 6 5 224.785 204.286 13.713 135.694 o
3 6 6 1158.710 1058.000 29.304 12.152 o
3 6 7 447.017 423.661 20.465 50.817 o
3 6 8 1041.440 1006.910 33.669 13.304 o
3 6 9 111.882 96.333 18.344 165.439 o
3 6 10 954.978 1003.090 38.184 13.692 o
3 6 11 5.266 -41.925 28.853 98.480 o
3 6 12 545.041 531.110 51.744 18.904 o
3 6 13 1.606 38.382 68.424 17.534 o
3 7 0 103.176 113.313 10.883 294.622 o
3 7 1 1338.680 1236.330 25.658 9.825 o
3 7 2 0.626 16.448 9.274 888.178 o
3 7 3 1803.070 1751.420 34.180 5.525 o
3 7 4 14.455 26.846 11.306 549.526 o
3 7 5 764.619 705.804 24.616 23.646 o
3 7 6 17.236 24.992 16.604 275.207 o
3 7 7 873.774 900.063 30.285 17.259 o
3 7 8 344.357 326.301 20.726 66.976 o
3 7 9 710.799 697.808 31.928 22.581 o
3 7 10 9.152 -7.919 22.275 163.727 o
3 7 11 544.817 546.625 35.797 27.574 o
3 7 12 13.367 -24.341 46.247 38.331 o
3 8 0 638.588 642.705 20.259 31.264 o
3 8 1 576.855 531.031 19.348 38.061 o
3 8 2 1418.870 1338.700 26.497 8.768 o
3 8 3 1.947 18.604 11.190 615.592 o
3 8 4 1463.370 1322.070 33.885 8.141 o
3 8 5 110.458 121.501 14.736 209.630 o
3 8 6 1978.650 1793.080 40.083 4.768 o
3 8 7 7.523 2.923 16.955 279.902 o
3 8 8 801.047 730.926 35.943 18.768 o
3 8 9 54.299 67.693 21.974 146.738 o
3 8 10 632.752 672.860 41.114 20.850 o
3 8 11 26.913 71.526 44.279 40.906 o
3 8 12 946.211 991.246 78.912 7.695 o
3 9 0 6.217 12.225 11.921 543.460 o
3 9 1 1683.640 1667.280 34.137 6.142 o
3 9 2 455.482 430.437 16.058 55.112 o
3 9 3 901.021 834.913 27.859 17.889 o
3 9 4 262.297 253.793 18.661 92.901 o
3 9 5 2648.710 2573.410 59.182 2.592 o
3 9 6 0.980 -12.670 17.072 281.939 o
3 9 7 325.990 381.471 31.553 45.303 o
3 9 8 13.154 4.048 21.897 167.710 o
3 9 9 155.648 239.122 27.537 75.733 o
3 9 10 0.019 -24.013 29.134 97.053 o
3 9 11 904.793 857.610 51.933 12.476 o
3 10 0 351.138 379.579 19.991 64.240 o
3 10 1 42.531 38.294 16.109 264.200 o
3 10 2 1199.090 1193.560 36.758 10.338 o
3 10 3 426.173 428.136 22.843 49.310 o
3 10 4 3417.310 3292.950 70.444 1.625 o
3 10 5 11.038 -6.784 18.849 226.486 o
3 10 6 755.668 738.721 37.192 19.184 o
3 10 7 16.251 25.296 22.594 154.426 o
3 10 8 235.972 254.315 26.977 67.817 o
3 10 9 11.166 -14.994 30.634 86.993 o
3 10 10 531.668 557.188 49.447 19.974 o
3 10 11 31.828 40.656 45.261 39.379 o
3 11 0 34.987 7.292 17.214 251.443 o
3 11 1 1036.490 1027.040 36.764 12.792 o
3 11 2 287.375 270.215 23.541 70.908 o
3 11 3 1772.910 1678.950 47.328 5.365 o
3 11 4 169.469 168.031 23.748 95.968 o
3 11 5 1099.790 1081.530 42.832 11.038 o
3 11 6 63.249 42.345 22.944 137.036 o
3 11 7 419.126 412.230 33.346 37.132 o
3 11 8 3.979 32.634 29.522 92.833 o
3 11 9 232.913 244.614 35.639 47.292 o
3 11 10 0.432 22.294 39.393 52.782 o
3 12 0 708.612 682.371 32.170 22.744 o
3 12 1 10.828 32.804 19.267 209.736 o
3 12 2 844.096 887.797 38.522 15.965 o
3 12 3 20.551 50.720 19.388 199.151 o
3 12 4 1301.800 1184.760 51.109 8.324 o
3 12 5 12.573 17.291 23.861 140.590 o
3 12 6 1233.230 1209.900 53.937 8.397 o
3 12 7 3.555 6.561 26.379 117.506 o
3 12 8 461.652 456.875 44.650 25.053 o
3 12 9 0.007 7.520 36.219 62.662 o
3 12 10 383.580 357.862 57.996 19.152 o
3 13 0 54.278 72.231 31.167 78.285 o
3 13 1 1101.180 1008.590 48.011 10.669 o
3 13 2 52.600 84.869 23.232 131.701 o
3 13 3 827.155 889.617 38.450 16.231 o
3 13 4 85.817 106.154 31.970 71.176 o
3 13 5 369.927 417.733 31.683 41.518 o
3 13 6 44.719 81.907 28.358 93.593 o
3 13 7 619.886 555.643 40.121 22.892 o
3 13 8 0.026 -27.282 34.346 69.832 o
3 13 9 481.410 446.542 51.577 20.600 o
3 14 0 1737.960 1678.310 64.062 4.876 o
3 14 1 9.451 -19.552 30.332 88.841 o
3 14 2 762.504 759.839 38.441 18.445 o
3 14 3 0.893 -25.882 23.051 154.845 o
3 14 4 301.171 311.230 31.316 49.530 o
3 14 5 0.348 31.262 28.763 98.110 o
3 14 6 443.767 506.855 51.250 20.895 o
3 14 7 116.178 16.725 36.041 58.122 o
3 14 8 641.991 581.212 55.126 15.970 o
3 15 0 17.751 -3.592 30.581 86.808 o
3 15 1 827.330 891.893 54.416 12.549 o
3 15 2 82.112 125.110 30.265 77.843 o
3 15 3 491.191 494.085 37.517 28.900 o
3 15 4 47.754 66.535 33.245 70.022 o
3 15 5 312.633 356.320 39.123 35.954 o
3 15 6 12.765 34.720 39.487 52.033 o
3 15 7 368.483 285.653 97.693 7.957 o
3 16 0 690.193 682.943 52.761 15.556 o
3 16 1 1.685 -17.585 34.370 69.660 o
3 16 2 621.542 573.202 40.870 22.277 o
3 16 3 46.458 69.465 33.882 67.555 o
3 16 4 278.731 270.532 38.955 39.095 o
3 16 5 152.282 132.400 38.440 47.924 o
3 17 0 1.756 5.664 38.177 56.388 o
3 17 1 430.827 459.013 45.322 25.264 o
3 17 2 0.656 9.650 39.936 51.518 o
3 17 3 565.154 640.158 57.716 15.619 o
4 0 0 665.369 688.819 31.890 23.952 o
4 0 2 1178.260 1141.960 40.272 10.383 o
4 0 4 321.502 298.492 24.667 62.285 o
4 0 6 2254.440 2016.110 83.102 3.079 o
4 0 8 650.095 655.380 55.905 15.200 o
4 0 10 566.295 644.722 48.245 19.233 o
4 1 0 120.240 206.551 16.783 155.335 o
4 1 1 1162.820 1176.000 28.434 11.552 o
4 1 2 59.038 131.857 16.036 219.068 o
4 1 3 689.543 666.082 25.618 26.312 o
4 1 4 51.343 153.586 31.549 73.687 o
4 1 5 1332.370 1260.840 38.150 8.931 o
4 1 6 0.456 149.433 29.706 86.914 o
4 1 7 1107.890 1016.710 52.076 10.055 o
4 1 8 3.606 102.489 26.442 110.568 o
4 1 9 577.124 600.866 34.849 26.321 o
4 1 10 51.302 60.326 29.351 88.278 o
4 1 11 283.248 328.290 45.541 30.114 o
4 2 0 1827.650 1735.330 35.014 5.447 o
4 2 1 162.650 280.589 22.422 93.701 o
4 2 2 583.772 585.641 21.502 34.698 o
4 2 3 19.055 95.122 18.117 213.842 o
4 2 4 1842.740 1714.060 43.484 5.203 o
4 2 5 60.277 113.913 16.159 221.947 o
4 2 6 710.933 682.605 31.581 22.917 o
4 2 7 87.811 154.296 23.328 115.710 o
4 2 8 604.960 705.086 39.469 21.834 o
4 2 9 15.149 54.605 28.485 97.369 o
4 2 10 278.488 323.857 36.570 41.528 o
4 2 11 9.804 48.763 35.358 64.478 o
4 3 0 58.643 91.410 15.379 247.930 o
4 3 1 1631.550 1403.420 30.482 7.115 o
4 3 2 77.221 112.275 13.569 263.349 o
4 3 3 1297.580 1282.620 34.559 9.369 o
4 3 4 20.768 69.417 15.300 293.617 o
4 3 5 720.895 755.129 30.441 22.138 o
4 3 6 13.975 42.969 17.956 234.723 o
4 3 7 552.937 663.086 36.692 25.064 o
4 3 8 24.060 71.379 27.532 101.891 o
4 3 9 271.341 268.550 31.957 51.701 o
4 3 10 23.735 38.373 35.058 65.164 o
4 3 11 673.415 684.166 43.941 18.823 o
4 4 0 1240.380 1191.100 33.744 10.266 o
4 4 1 108.846 150.229 16.378 178.698 o
4 4 2 1294.870 1259.690 43.751 8.752 o
4 4 3 13.998 28.565 18.248 231.773 o
4 4 4 514.824 560.773 26.743 35.149 o
4 4 5 277.676 280.209 20.603 80.600 o
4 4 6 609.935 712.937 32.411 24.962 o
4 4 7 220.008 241.193 22.901 85.045 o
4 4 8 1009.980 920.929 39.001 13.380 o
4 4 9 82.868 58.097 29.211 86.045 o
4 4 10 372.409 395.663 40.963 31.253 o
4 4 11 15.056 50.527 41.541 46.847 o
4 5 0 42.304 79.235 20.903 161.805 o
4 5 1 428.701 477.500 24.400 45.196 o
4 5 2 9.008 8.188 15.454 330.957 o
4 5 3 1159.820 1106.270 46.051 10.046 o
4 5 4 7.095 18.308 18.629 229.074 o
4 5 5 635.048 673.452 32.488 24.766 o
4 5 6 74.779 15.909 23.088 135.922 o
4 5 7 469.018 482.075 28.819 37.690 o
4 5 8 1.680 12.295 24.483 136.078 o
4 5 9 321.955 421.046 39.658 33.840 o
4 5 10 109.851 109.515 40.714 45.142 o
4 5 11 418.944 458.675 53.431 20.459 o
4 6 0 2771.300 2667.160 57.246 2.429 o
4 6 1 86.770 29.497 18.060 196.684 o
4 6 2 616.790 622.265 28.888 28.056 o
4 6 3 13.992 1.170 17.524 258.787 o
4 6 4 395.406 416.859 25.412 48.650 o
4 6 5 39.090 48.400 20.576 172.628 o
4 6 6 1415.570 1457.040 45.285 7.373 o
4 6 7 115.786 123.779 28.000 85.068 o
4 6 8 327.194 347.583 27.418 53.613 o
4 6 9 225.352 280.516 43.953 33.990 o
4 6 10 285.731 270.170 54.744 22.877 o
4 7 0 11.404 29.434 20.669 183.941 o
4 7 1 1379.780 1412.860 48.305 7.481 o
4 7 2 3.424 20.966 18.323 237.791 o
4 7 3 805.501 806.166 35.916 17.977 o
4 7 4 184.342 173.629 21.605 104.334 o
4 7 5 1133.410 1148.280 66.083 7.912 o
4 7 6 56.565 43.711 23.014 137.698 o
4 7 7 81.966 94.914 25.733 104.773 o
4 7 8 345.030 310.086 34.121 42.314 o
4 7 9 520.331 552.937 40.491 25.166 o
4 7 10 247.196 156.478 38.025 44.237 o
4 8 0 526.800 593.006 31.072 30.632 o
4 8 1 0.371 -0.446 20.684 192.415 o
4 8 2 1527.520 1549.100 54.408 6.171 o
4 8 3 84.811 63.902 22.589 132.915 o
4 8 4 1156.370 1208.120 49.506 9.323 o
4 8 5 65.945 79.022 24.769 115.949 o
4 8 6 50.567 65.958 29.075 89.619 o
4 8 7 29.252 46.798 35.308 63.835 o
4 8 8 744.555 737.209 45.830 16.612 o
4 8 9 10.098 -20.032 46.117 38.594 o
4 8 10 861.081 742.812 110.718 5.259 o
4 9 0 11.081 27.765 21.659 168.533 o
4 9 1 811.819 813.864 39.911 16.699 o
4 9 2 44.444 37.402 28.550 94.817 o
4 9 3 1426.770 1529.370 105.486 3.995 o
4 9 4 63.496 52.606 24.464 121.370 o
4 9 5 291.808 337.257 28.902 53.981 o
4 9 6 19.320 -45.211 26.393 115.761 o
4 9 7 773.458 791.658 39.907 17.517 o
4 9 8 0.011 -6.626 33.237 74.569 o
4 9 9 258.322 204.286 42.458 36.059 o
4 10 0 331.419 307.013 43.236 31.487 o
4 10 1 26.324 42.330 26.625 110.127 o
4 10 2 779.921 914.031 52.664 13.286 o
4 10 3 27.794 41.127 32.167 76.655 o
4 10 4 625.933 750.606 53.924 15.556 o
4 10 5 45.804 39.958 32.453 74.256 o
4 10 6 541.494 476.842 36.909 28.021 o
4 10 7 3.103 33.340 34.669 67.669 o
4 10 8 397.234 455.793 42.803 28.036 o
4 11 0 6.977 22.915 26.346 116.281 o
4 11 1 601.829 587.376 36.801 24.700 o
4 11 2 7.278 -1.740 26.912 112.881 o
4 11 3 747.874 793.166 72.565 9.969 o
4 11 4 35.559 9.488 29.826 89.312 o
4 11 5 797.392 767.564 43.082 16.408 o
4 11 6 14.711 72.429 35.694 62.580 o
4 11 7 560.881 530.499 45.936 21.432 o
4 11 8 117.890 71.641 85.969 10.919 o
4 12 0 796.725 797.097 49.664 14.461 o
4 12 1 0.554 12.788 37.447 58.526 o
4 12 2 419.363 448.741 40.750 29.219 o
4 12 3 19.613 -20.083 32.661 76.133 o
4 12 4 361.301 419.335 44.162 28.308 o
4 12 5 9.699 -19.406 34.259 69.749 o
4 12 6 329.261 363.689 55.087 21.432 o
4 12 7 14.429 -19.897 60.017 22.800 o
4 13 0 288.887 329.799 39.346 37.042 o
4 13 1 762.881 733.975 52.317 14.530 o
4 13 2 6.372 17.885 37.435 58.291 o
4 13 3 791.560 823.907 52.788 13.605 o
4 13 4 44.353 5.437 40.349 49.422 o
4 13 5 576.766 547.615 43.915 21.983 o
4 14 0 374.436 433.696 43.851 28.053 o
4 14 1 79.312 70.850 39.497 49.410 o
4 14 2 526.805 464.318 47.077 22.112 o
4 14 3 4.301 -96.680 44.774 41.025 o
4 14 4 251.099 329.175 41.905 35.066 o
4 15 0 74.689 45.454 42.725 43.046 o
4 15 1 522.246 537.044 72.550 11.979 o
5 0 0 2.054 -11.357 36.253 62.605 o
5 0 2 100.800 122.842 38.871 49.176 o
5 0 4 1245.580 1162.250 81.112 6.146 o
5 0 6 247.209 374.345 67.509 15.870 o
5 0 8 458.259 433.779 60.223 16.892 o
5 1 0 35.388 2.010 26.602 111.772 o
5 1 1 359.693 404.268 30.995 43.431 o
5 1 2 39.452 10.575 23.775 136.855 o
5 1 3 380.652 395.471 29.536 44.489 o
5 1 4 5.283 30.309 31.444 81.996 o
5 1 5 457.354 477.536 40.907 27.587 o
5 1 6 50.487 19.238 46.665 36.967 o
5 1 7 247.281 326.206 42.459 34.543 o
5 1 8 6.860 41.618 41.350 47.569 o
5 2 0 612.395 629.700 35.886 24.322 o
5 2 1 15.861 26.956 23.347 144.929 o
5 2 2 459.441 488.646 39.029 28.812 o
5 2 3 3.781 -13.605 23.795 144.767 o
5 2 4 492.905 529.476 33.380 31.451 o
5 2 5 1.484 22.242 27.532 107.305 o
5 2 6 886.576 868.943 52.734 12.439 o
5 2 7 19.337 74.745 43.132 43.176 o
5 2 8 163.614 191.799 46.745 33.095 o
5 3 0 205.475 215.387 43.587 35.908 o
5 3 1 767.309 851.172 51.997 13.909 o
5 3 2 0.094 5.730 22.653 159.839 o
5 3 3 744.291 744.977 34.883 20.135 o
5 3 4 29.465 25.373 27.444 104.602 o
5 3 5 387.398 435.508 32.901 38.611 o
5 3 6 1.399 7.372 30.454 88.453 o
5 3 7 349.588 361.170 46.977 26.898 o
5 3 8 5.876 -68.652 46.901 37.374 o
5 4 0 642.404 695.760 42.181 19.979 o
5 4 1 12.627 15.418 27.327 108.017 o
5 4 2 664.177 707.732 39.008 20.711 o
5 4 3 2.042 26.247 32.545 76.927 o
5 4 4 512.349 572.268 37.259 27.208 o
5 4 5 7.061 9.002 30.187 89.530 o
5 4 6 267.552 259.703 35.953 44.581 o
5 4 7 2.059 -31.133 51.247 31.348 o
5 4 8 189.972 163.710 73.212 14.493 o
5 5 0 96.594 100.812 31.415 72.769 o
5 5 1 896.347 959.526 50.845 12.275 o
5 5 2 2.482 26.746 28.516 99.800 o
5 5 3 427.700 492.639 38.857 29.885 o
5 5 4 36.703 26.911 31.651 78.955 o
5 5 5 480.103 567.432 41.786 25.184 o
5 5 6 1.422 -32.671 36.097 63.169 o
5 5 7 136.278 110.308 40.610 44.478 o
5 6 0 906.715 943.552 115.356 4.722 o
5 6 1 145.772 155.148 40.756 43.141 o
5 6 2 1376.670 1431.860 57.799 6.826 o
5 6 3 6.530 28.697 30.805 85.344 o
5 6 4 189.685 330.306 38.990 41.371 o
5 6 5 42.015 63.672 47.014 36.219 o
5 6 6 63.767 118.211 47.910 34.155 o
5 6 7 5.018 -5.002 42.197 46.167 o
5 7 0 40.838 55.037 33.789 68.624 o
5 7 1 453.492 472.961 44.357 25.256 o
5 7 2 14.304 44.678 29.748 90.077 o
5 7 3 682.821 741.657 52.770 15.290 o
5 7 4 3.142 -30.558 40.841 49.318 o
5 7 5 238.505 306.884 45.869 31.109 o
5 7 6 81.659 86.186 47.499 34.689 o
5 8 0 445.383 498.183 43.580 25.688 o
5 8 1 0.154 51.425 36.308 61.537 o
5 8 2 320.234 377.891 58.722 19.371 o
5 8 3 52.980 78.379 39.556 50.003 o
5 8 4 621.788 708.471 45.303 18.982 o
5 8 5 10.047 10.294 38.164 56.108 o
5 8 6 430.827 496.235 105.508 6.647 o
5 9 0 0.023 -25.539 35.883 63.977 o
5 9 1 355.512 391.635 43.968 28.983 o
5 9 2 0.230 66.011 40.501 49.417 o
5 9 3 162.048 107.858 43.045 39.406 o
5 9 4 35.374 -5.302 43.779 42.352 o
5 9 5 487.995 610.930 63.630 14.525 o
5 10 0 529.484 513.152 47.851 21.190 o
5 10 1 16.464 16.171 40.060 50.720 o
5 10 2 319.259 339.672 47.174 27.625 o
5 10 3 25.880 28.043 44.972 40.089 o
5 10 4 297.965 321.691 108.113 6.657 o
5 11 0 34.447 8.409 41.050 47.995 o
5 11 1 343.192 377.504 48.623 25.548 o
5 11 2 1.527 59.484 95.088 9.086 o
6 0 0 1088.820 1215.900 84.474 6.282 o
6 1 0 82.115 78.977 38.536 51.485 o
6 1 1 607.118 604.561 41.355 22.012 o
6 2 0 152.488 231.626 39.855 43.208 o
6 2 1 5.361 45.025 50.175 32.437 o
6 3 0 55.863 48.790 50.709 31.181 o
;
_olex2_submission_special_instructions 'No special instructions were received'
loop_
_space_group_symop_id
_space_group_symop_operation_xyz
1 x,y,z
2 -x,y+1/2,-z+1/2
3 -x,-y,-z
4 x,-y-1/2,z-1/2
loop_
_atom_site_label
_atom_site_type_symbol
_atom_site_fract_x
_atom_site_fract_y
_atom_site_fract_z
_atom_site_U_iso_or_equiv
_atom_site_adp_type
_atom_site_occupancy
_atom_site_site_symmetry_order
_atom_site_refinement_flags_posn
_atom_site_refinement_flags_adp
_atom_site_refinement_flags_occupancy
Cd01 Cd 1.0 0.5 0.0 0.01787(15) Uani 1.000000 2 S T P
O2 O 0.8747(7) 0.39563(19) 0.1079(2) 0.0300(7) Uani 1.000000 1 . . .
O3 O 0.7223(6) 0.05404(18) 0.3577(2) 0.0281(7) Uani 1.000000 1 . . .
O4 O 0.3452(7) 0.09095(19) 0.4477(3) 0.0344(8) Uani 1.000000 1 . . .
N1 N 0.2951(7) 0.3278(2) 0.3143(3) 0.0187(7) Uani 1.000000 1 . . .
O1 O 0.8873(8) 0.2605(2) 0.0443(3) 0.0440(9) Uani 1.000000 1 . . .
C9 C 0.3150(9) 0.4510(2) 0.4339(3) 0.0233(9) Uani 1.000000 1 . . .
C6 C 0.4480(9) 0.3482(2) 0.2319(3) 0.0200(8) Uani 1.000000 1 . . .
C3 C 0.4994(9) 0.1880(3) 0.3236(3) 0.0189(8) Uani 1.000000 1 . . .
C2 C 0.5227(9) 0.1027(3) 0.3807(3) 0.0229(9) Uani 1.000000 1 . . .
C7 C 0.3150(9) 0.2496(2) 0.3602(3) 0.0191(8) Uani 1.000000 1 . . .
C8 C 0.1225(9) 0.3967(3) 0.3615(3) 0.0252(9) Uani 1.000000 1 . . .
C5 C 0.6312(9) 0.2890(3) 0.1932(3) 0.0200(8) Uani 1.000000 1 . . .
C11 C 0.4690(12) 0.5188(3) 0.3950(4) 0.0318(11) Uani 1.000000 1 . . .
C1 C 0.8167(9) 0.3161(3) 0.1049(3) 0.0234(9) Uani 1.000000 1 . . .
C4 C 0.6581(9) 0.2085(2) 0.2394(3) 0.0192(8) Uani 1.000000 1 . . .
C10 C 0.3460(11) 0.4321(3) 0.5390(3) 0.0310(10) Uani 1.000000 1 . . .
H6 H 0.4288(9) 0.4025(2) 0.2014(3) 0.0241(10) Uiso 1.000000 1 R . .
H7 H 0.2056(9) 0.2369(2) 0.4162(3) 0.0229(10) Uiso 1.000000 1 R . .
H4 H 0.7826(9) 0.1680(2) 0.2139(3) 0.0230(10) Uiso 1.000000 1 R . .
H8a H 0.0325(9) 0.4326(3) 0.3068(3) 0.0303(11) Uiso 1.000000 1 R . .
H8b H -0.0270(9) 0.3708(3) 0.4000(3) 0.0303(11) Uiso 1.000000 1 R . .
H11 H 0.4488(12) 0.5318(3) 0.3241(4) 0.0382(13) Uiso 1.000000 1 R . .
H10 H 0.2438(11) 0.3867(3) 0.5659(3) 0.0372(12) Uiso 1.000000 1 R . .
loop_
_atom_site_aniso_label
_atom_site_aniso_U_11
_atom_site_aniso_U_22
_atom_site_aniso_U_33
_atom_site_aniso_U_12
_atom_site_aniso_U_13
_atom_site_aniso_U_23
Cd01 0.0260(2) 0.0143(2) 0.0139(2) -0.00243(17) 0.00538(14) -0.00044(17)
O2 0.0381(18) 0.0259(16) 0.0267(17) -0.0084(14) 0.0081(14) 0.0072(13)
O3 0.0388(18) 0.0242(15) 0.0211(16) 0.0104(13) 0.0008(13) 0.0024(12)
O4 0.041(2) 0.0272(16) 0.0369(19) -0.0012(14) 0.0160(16) 0.0101(14)
N1 0.0194(17) 0.0183(16) 0.0186(17) 0.0009(13) 0.0027(13) -0.0015(13)
O1 0.061(2) 0.0343(18) 0.040(2) -0.0056(17) 0.0298(19) -0.0052(16)
C9 0.026(2) 0.018(2) 0.025(2) 0.0075(17) -0.0009(17) -0.0010(17)
C6 0.027(2) 0.0155(19) 0.017(2) -0.0020(16) 0.0015(16) 0.0012(16)
C3 0.021(2) 0.0205(19) 0.015(2) -0.0024(16) 0.0004(15) 0.0013(16)
C2 0.027(2) 0.0177(19) 0.023(2) -0.0046(17) -0.0005(17) 0.0006(16)
C7 0.022(2) 0.021(2) 0.0148(19) -0.0018(16) 0.0019(15) 0.0007(16)
C8 0.026(2) 0.025(2) 0.024(2) 0.0086(17) 0.0026(17) -0.0042(18)
C5 0.023(2) 0.022(2) 0.015(2) -0.0044(17) 0.0019(16) 0.0012(16)
C11 0.052(3) 0.024(2) 0.019(2) -0.0027(19) 0.001(2) 0.0023(16)
C1 0.024(2) 0.027(2) 0.019(2) -0.0005(17) 0.0012(17) 0.0039(17)
C4 0.022(2) 0.0189(19) 0.017(2) -0.0008(16) 0.0039(15) -0.0016(16)
C10 0.046(3) 0.026(2) 0.022(2) -0.005(2) 0.0066(19) 0.0013(18)
loop_
_atom_type_symbol
_atom_type_scat_dispersion_real
_atom_type_scat_dispersion_imag
_atom_type_scat_Cromer_Mann_a1
_atom_type_scat_Cromer_Mann_a2
_atom_type_scat_Cromer_Mann_a3
_atom_type_scat_Cromer_Mann_a4
_atom_type_scat_Cromer_Mann_b1
_atom_type_scat_Cromer_Mann_b2
_atom_type_scat_Cromer_Mann_b3
_atom_type_scat_Cromer_Mann_b4
_atom_type_scat_Cromer_Mann_c
_atom_type_scat_source
_atom_type_scat_dispersion_source
H 0.00000 0.00000 0.49300 0.32291 0.14019 0.04081 10.51090 26.12570 3.14236
57.79970 0.0030380000826
'International Tables Volume C Table 6.1.1.4 (pp. 500-502)'
'Henke, Gullikson and Davis, At. Data and Nucl. Data Tables, 1993, 54, 2'
C 0.00347 0.00161 2.31000 1.02000 1.58860 0.86500 20.84390 10.20750 0.56870
51.65120 0.215599998832
'International Tables Volume C Table 6.1.1.4 (pp. 500-502)'
'Henke, Gullikson and Davis, At. Data and Nucl. Data Tables, 1993, 54, 2'
Cd -0.80532 1.22853 19.22140 17.64440 4.46100 1.60290 0.59460 6.90890 24.70080
87.48250 5.06939983368
'International Tables Volume C Table 6.1.1.4 (pp. 500-502)'
'Henke, Gullikson and Davis, At. Data and Nucl. Data Tables, 1993, 54, 2'
O 0.01158 0.00611 3.04850 2.28680 1.54630 0.86700 13.27710 5.70110 0.32390
32.90890 0.250800013542
'International Tables Volume C Table 6.1.1.4 (pp. 500-502)'
'Henke, Gullikson and Davis, At. Data and Nucl. Data Tables, 1993, 54, 2'
N 0.00653 0.00323 12.21260 3.13220 2.01250 1.16630 0.00570 9.89330 28.99750
0.58260 -11.5290002823
'International Tables Volume C Table 6.1.1.4 (pp. 500-502)'
'Henke, Gullikson and Davis, At. Data and Nucl. Data Tables, 1993, 54, 2'
loop_
_geom_angle_atom_site_label_1
_geom_angle_atom_site_label_2
_geom_angle_atom_site_label_3
_geom_angle
_geom_angle_site_symmetry_1
_geom_angle_site_symmetry_3
_geom_angle_publ_flag
O2 Cd01 O2 180.0 3_765 . ?
O3 Cd01 O2 93.99(11) 2_755 3_765 ?
O3 Cd01 O2 93.99(11) 4_565 . ?
O3 Cd01 O2 86.01(11) 2_755 . ?
O3 Cd01 O2 86.01(11) 4_565 3_765 ?
O3 Cd01 O3 180.0 4_565 2_755 ?
O4 Cd01 O2 87.38(11) 4_665 . ?
O4 Cd01 O2 92.62(11) 4_665 3_765 ?
O4 Cd01 O2 87.38(11) 2_655 3_765 ?
O4 Cd01 O2 92.62(11) 2_655 . ?
O4 Cd01 O3 94.81(11) 4_665 2_755 ?
O4 Cd01 O3 94.81(11) 2_655 4_565 ?
O4 Cd01 O3 85.19(11) 2_655 2_755 ?
O4 Cd01 O3 85.19(11) 4_665 4_565 ?
O4 Cd01 O4 180.0 4_665 2_655 ?
C1 O2 Cd01 138.9(3) . 3_765 ?
C2 O3 Cd01 114.8(3) . 2_745 ?
C2 O4 Cd01 144.2(3) . 2_645 ?
C7 N1 C6 121.8(3) . . ?
C8 N1 C6 118.6(3) . . ?
C8 N1 C7 119.4(3) . . ?
C11 C9 C8 120.3(4) . . ?
C10 C9 C8 120.3(4) . . ?
C10 C9 C11 119.3(4) . . ?
C5 C6 N1 120.1(4) . . ?
H6 C6 N1 119.9(2) . . ?
H6 C6 C5 119.9(2) . . ?
C7 C3 C2 117.6(4) . . ?
C4 C3 C2 123.5(4) . . ?
C4 C3 C7 118.8(4) . . ?
O4 C2 O3 128.0(4) . . ?
C3 C2 O3 116.4(4) . . ?
C3 C2 O4 115.6(4) . . ?
C3 C7 N1 119.8(4) . . ?
H7 C7 N1 120.1(2) . . ?
H7 C7 C3 120.1(2) . . ?
C9 C8 N1 109.4(3) . . ?
H8a C8 N1 109.8(2) . . ?
H8a C8 C9 109.8(2) . . ?
H8b C8 N1 109.8(2) . . ?
H8b C8 C9 109.8(2) . . ?
H8b C8 H8a 108.2 . . ?
C1 C5 C6 118.9(4) . . ?
C4 C5 C6 119.4(4) . . ?
C4 C5 C1 121.6(4) . . ?
C10 C11 C9 120.7(4) 3_666 . ?
H11 C11 C9 119.6(3) . . ?
H11 C11 C10 119.6(3) . 3_666 ?
O1 C1 O2 130.0(4) . . ?
C5 C1 O2 112.1(4) . . ?
C5 C1 O1 117.9(4) . . ?
C5 C4 C3 120.1(4) . . ?
H4 C4 C3 120.0(2) . . ?
H4 C4 C5 120.0(2) . . ?
C11 C10 C9 120.0(4) 3_666 . ?
H10 C10 C9 120.0(3) . . ?
H10 C10 C11 120.0(3) . 3_666 ?
loop_
_geom_bond_atom_site_label_1
_geom_bond_atom_site_label_2
_geom_bond_distance
_geom_bond_site_symmetry_2
_geom_bond_publ_flag
Cd01 O2 2.233(3) . ?
Cd01 O2 2.233(3) 3_765 ?
Cd01 O3 2.327(3) 2_755 ?
Cd01 O3 2.327(3) 4_565 ?
Cd01 O4 2.279(3) 4_665 ?
Cd01 O4 2.279(3) 2_655 ?
O2 C1 1.263(5) . ?
O3 C2 1.251(5) . ?
O4 C2 1.247(5) . ?
N1 C6 1.353(5) . ?
N1 C7 1.349(5) . ?
N1 C8 1.491(5) . ?
O1 C1 1.221(5) . ?
C9 C8 1.508(6) . ?
C9 C11 1.387(6) . ?
C9 C10 1.378(6) . ?
C6 C5 1.371(6) . ?
C6 H6 0.9300 . ?
C3 C2 1.513(5) . ?
C3 C7 1.389(6) . ?
C3 C4 1.388(6) . ?
C7 H7 0.9300 . ?
C8 H8a 0.9700 . ?
C8 H8b 0.9700 . ?
C5 C1 1.531(6) . ?
C5 C4 1.385(5) . ?
C11 C10 1.397(6) 3_666 ?
C11 H11 0.9300 . ?
C4 H4 0.9300 . ?
C10 H10 0.9300 . ?
loop_
_refln_index_h
_refln_index_k
_refln_index_l
_refln_F_squared_meas
_refln_F_squared_sigma
1 0 0 5.7 2.1
1 0 0 5.7 1.7
-1 0 0 8.5 1.9
-1 0 0 3.7 1.6
-2 0 0 391.16 19.4
-2 0 0 380.56 18.8
2 0 0 392.26 19.4
2 0 0 383.56 18.8
-3 0 0 778.22 36.7
3 0 0 772.12 38.8
3 0 0 839.32 38
-3 0 0 837.82 38.7
-3 0 0 826.72 37.7
-4 0 0 168.48 16.1
4 0 0 146.69 18.1
4 0 0 160.88 19.6
4 0 0 178.08 22.3
-4 0 0 139.59 15.2
-4 0 0 164.48 19.3
5 0 0 6.1 16.3
5 0 0 -10 21.5
-5 0 0 -4.7 10.9
-6 0 0 284.97 33.4
6 0 0 264.77 33.9
-6 0 0 288.97 33.8
1 -1 0 16.7 2.7
-1 -1 0 19.1 3.1
-1 -1 0 14.3 2.3
-1 -1 0 15 2.3
1 -1 0 17.7 2.4
-1 1 0 18.5 2.4
1 1 0 14.6 2.2
-1 1 0 12.9 2.2
1 1 0 13 2.7
2 -1 0 341.77 17.9
-2 -1 0 366.86 17.9
-2 -1 0 361.86 18.8
-2 -1 0 345.07 17.3
2 -1 0 373.46 18.4
-2 1 0 353.26 17.7
2 1 0 379.26 18
2 1 0 374.06 19.2
-2 1 0 375.86 18.4
-3 1 0 89.59 11.3
-4 -1 0 39.4 8.8
4 -1 0 46.5 11.4
-4 -1 0 39.9 11.6
-4 -1 0 43.3 8.1
4 1 0 37.6 10.5
-4 1 0 59.79 11.2
4 1 0 64.49 12.3
5 -1 0 3.2 21.3
-5 -1 0 -13.4 16.5
5 -1 0 13.3 15.2
-5 -1 0 -12.8 10.4
-5 1 0 23.2 11.6
5 1 0 -16.3 20.5
-6 -1 0 41.9 20
6 -1 0 7.2 25.4
-6 -1 0 15.5 18.8
-6 1 0 22.4 18.3
-6 1 0 2.4 18.8
-1 -2 0 909.11 40.6
1 -2 0 981 40.9
-1 -2 0 969.4 41.6
1 -2 0 1007.1 40.9
1 -2 0 964 41.5
-1 -2 0 958.5 40.7
-1 2 0 940.81 40.8
1 2 0 934.21 40.6
1 2 0 965.5 40.7
-1 2 0 987.6 40.9
-2 -2 0 1025.5 44.1
2 -2 0 1007.5 44.4
-2 -2 0 974.1 43.5
-2 -2 0 954.4 44.9
2 -2 0 1011 44.1
-2 2 0 1021.4 44.2
2 2 0 1023.8 45.4
-2 2 0 1014.7 44.2
2 2 0 1041 44
3 -2 0 567.34 29.6
-3 -2 0 622.44 36.3
3 -2 0 604.44 30.9
-3 -2 0 587.14 28.9
3 -2 0 617.84 29.7
-3 -2 0 608.64 28.5
-3 2 0 574.64 29.5
-3 2 0 591.54 29.1
3 2 0 580.74 30.8
4 -2 0 406.46 25.5
-4 -2 0 356.66 27.4
4 -2 0 377.36 25.6
-4 -2 0 424.86 23.6
-4 -2 0 434.76 24.4
4 -2 0 378.96 28.7
4 2 0 437.96 27.2
-4 2 0 416.26 22.8
-4 2 0 387.26 25.8
-4 2 0 378.56 24.3
4 2 0 360.66 25.6
5 -2 0 146.49 25.3
-5 -2 0 139.29 18
5 -2 0 148.89 20.8
-5 -2 0 141.19 16.5
-5 2 0 149.69 15.8
6 -2 0 51.19 23.8
-6 -2 0 48.9 20.3
-6 -2 0 53.69 19.2
-6 2 0 60.59 21.8
-6 2 0 52.59 18.7
0 -3 0 2.1 1.9
0 -3 0 1.1 1.4
0 3 0 0.6 1.3
0 3 0 -0.2 1.4
0 3 0 -0.5 1.1
0 3 0 2.6 2.1
1 -3 0 369.86 17.1
-1 -3 0 385.86 17.2
1 -3 0 385.26 17.2
-1 -3 0 351.36 16.9
1 -3 0 387.76 18.2
1 3 0 373.96 16.9
-1 3 0 359.06 17.1
1 3 0 356.46 16.8
-1 3 0 371.76 17
2 -3 0 92.39 7.6
-2 -3 0 94.69 7.4
-2 -3 0 73.19 7.3
2 -3 0 82.99 8.1
2 -3 0 95.89 10.3
-2 3 0 83.69 7.2
-2 3 0 102.99 7.9
2 3 0 96.09 7.7
3 -3 0 125.09 11.7
-3 -3 0 164.38 11.4
3 -3 0 109.79 11.9
-3 -3 0 91.59 11.6
3 3 0 126.59 11.9
-3 3 0 117.39 12.3
-3 3 0 128.59 12
-4 -3 0 8.2 11.9
-4 -3 0 31.3 7.8
4 -3 0 16.2 9.4
4 -3 0 33.6 14.6
4 -3 0 11.7 11.3
4 3 0 17.5 9.8
-4 3 0 25 10.2
-4 3 0 19.1 9
5 -3 0 27.4 20.6
5 -3 0 97.09 25
-5 -3 0 32.1 12.8
-5 -3 0 41 14.4
-5 3 0 54.19 11.9
-6 -3 0 14.1 18
6 -3 0 11 23.3
-6 3 0 8.2 20.4
0 -4 0 1226.98 53.89
0 -4 0 1320.07 53.29
0 4 0 1241.78 53.59
0 4 0 1241.58 53.89
0 4 0 1284.47 53.29
0 4 0 1298.97 53.29
1 -4 0 1019.7 44.7
1 -4 0 1016.6 45.6
-1 -4 0 1050.39 44.5
-1 -4 0 1022.1 44.4
-1 -4 0 1047.5 43.8
1 4 0 1052.19 44.4
1 4 0 1036.9 44.4
1 4 0 1061.89 44
-1 4 0 1087.39 44
-1 4 0 1006.3 44.4
2 -4 0 568.54 25.7
-2 -4 0 533.25 26.9
-2 -4 0 529.35 25.1
-2 -4 0 551.04 25.3
2 -4 0 552.44 25.9
-2 4 0 539.25 25.4
-2 4 0 488.55 26.8
2 4 0 537.95 25.2
2 4 0 549.45 25.7
-3 -4 0 966.9 43.8
-3 -4 0 910.11 45.7
-3 -4 0 970.8 43.3
3 -4 0 933.61 44.4
3 -4 0 986.5 46.1
3 4 0 972.5 44
-3 4 0 949.71 44
-4 -4 0 298.67 24.7
-4 -4 0 279.37 19.8
-4 -4 0 287.67 19.9
4 -4 0 265.07 20.8
4 -4 0 264.87 23.1
4 -4 0 220.68 29.1
-4 4 0 272.07 20
-4 4 0 275.57 22.5
-5 -4 0 158.78 17.5
-5 -4 0 150.38 18.5
-5 4 0 168.48 22.6
-5 4 0 166.08 20.2
0 -5 0 3.8 2.8
0 5 0 -0.6 1.7
0 5 0 1.3 3.2
0 5 0 1.7 2.5
0 5 0 -1.3 2.1
1 -5 0 20.8 3.6
-1 -5 0 14.1 3
1 -5 0 19.5 5.3
1 -5 0 23.7 3.7
-1 -5 0 22 3.4
-1 -5 0 20.1 3.2
1 5 0 18.8 3.7
-1 5 0 12.6 3.7
1 5 0 9.7 2.9
-1 5 0 17.9 3.3
-1 5 0 19 3.3
-2 -5 0 8.9 3.8
-2 -5 0 6.2 5.7
2 -5 0 4.3 4.5
2 -5 0 13.3 6.1
-2 -5 0 8.6 4.2
2 -5 0 13 4.2
-2 5 0 6.8 4
2 5 0 11.8 3.9
2 5 0 8.8 4.1
-2 5 0 10.8 4.6
-3 -5 0 17.8 5.6
-3 -5 0 17.9 5.8
3 -5 0 20.6 7.7
-3 -5 0 16.2 9.2
3 -5 0 9.6 5.5
3 -5 0 14 12.3
3 5 0 12.7 6.4
-3 5 0 3 5.6
-3 5 0 9.8 6.7
4 -5 0 10.8 9.1
-4 -5 0 15.8 9.2
-4 -5 0 3.4 7.7
4 -5 0 48.6 12.1
4 -5 0 32 16.6
-4 5 0 4.8 11.2
-4 5 0 18.5 9.2
-5 -5 0 30.7 13.7
5 -5 0 15.7 16.2
-5 -5 0 27.1 12.7
-5 5 0 16.9 16.3
0 -6 0 50.99 5.3
0 -6 0 57.99 6.6
0 6 0 49 5.1
0 6 0 38.1 4.7
0 6 0 55.69 7.5
0 6 0 37.4 5
-1 -6 0 424.96 20.2
1 -6 0 424.36 21
-1 -6 0 427.26 20.6
1 -6 0 467.15 20.5
-1 -6 0 408.36 20.5
1 -6 0 455.45 20.9
1 -6 0 428.06 22.5
1 6 0 429.96 20.6
-1 6 0 426.76 21
-1 6 0 479.25 20.4
1 6 0 424.76 20.5
1 6 0 431.66 20.7
-2 -6 0 1244.18 56.29
2 -6 0 1206.28 56.39
-2 -6 0 1261.47 54.09
2 -6 0 1278.27 54.59
2 -6 0 1270.67 54.69
-2 -6 0 1188.78 53.89
-2 6 0 1227.58 54.39
2 6 0 1233.68 53.99
-2 6 0 1259.87 53.29
-2 6 0 1254.47 54.19
2 6 0 1185.38 53.99
3 -6 0 195.88 20.8
-3 -6 0 199.98 14.1
3 -6 0 192.28 14.6
3 -6 0 187.88 16
-3 -6 0 190.68 18.7
-3 -6 0 180.48 14.2
3 6 0 190.28 15.9
-3 6 0 160.48 14.3
-3 6 0 174.68 14.8
3 6 0 187.18 14.9
4 -6 0 643.04 36.1
4 -6 0 651.13 43.1
-4 -6 0 614.94 32.7
4 -6 0 604.64 33.9
-4 -6 0 592.84 32.6
-4 6 0 576.04 34.7
-4 6 0 628.64 33.9
-5 -6 0 149.99 24.7
5 -6 0 257.97 27
-5 -6 0 182.88 23.9
-5 6 0 258.97 28.6
0 -7 0 3.3 3.1
0 -7 0 -0.7 4.1
0 7 0 3.5 3.8
0 7 0 -3.5 2.5
0 7 0 -1.1 3.6
0 7 0 2.8 3.4
1 -7 0 26.9 4.7
-1 -7 0 35.1 4.9
1 -7 0 35.7 4.4
1 -7 0 28.6 6.7
-1 -7 0 31.7 4.9
-1 -7 0 20.8 4.8
1 -7 0 23.7 5.2
1 7 0 34.1 6.8
-1 7 0 26 4.4
-1 7 0 33.3 7.2
1 7 0 32.9 5.4
-1 7 0 32.4 4.8
1 7 0 30.7 5
2 -7 0 79.69 11.3
2 -7 0 71.79 8.9
-2 -7 0 68.39 8.6
2 -7 0 64.69 8.4
-2 -7 0 58.79 6.9
2 7 0 50.29 7.4
2 7 0 73.79 8.3
-2 7 0 72.09 9.1
-2 7 0 75.69 8.3
-2 7 0 67.69 8.5
-3 -7 0 23.9 8
3 -7 0 28.3 7.8
-3 -7 0 16.1 7
3 -7 0 20.4 12.3
-3 -7 0 25.4 10.3
3 -7 0 16.3 8.5
3 7 0 32.6 8.1
3 7 0 19.7 8.9
-3 7 0 24.7 8.4
-3 7 0 32.7 7.3
-3 7 0 34.3 7.9
-4 -7 0 14.3 9.8
4 -7 0 2.2 9.7
-4 -7 0 9.4 8.5
-4 7 0 0.5 10.4
-5 -7 0 27.3 16
5 -7 0 -0.9 17.3
-5 -7 0 13.6 13.6
-5 7 0 9.5 16.1
0 -8 0 387.46 19
0 -8 0 370.36 20.4
0 8 0 377.56 20.5
0 8 0 403.46 19.2
0 8 0 369.46 18.7
0 8 0 375.86 19.6
-1 -8 0 1891.71 80.49
-1 -8 0 1830.42 80.29
1 -8 0 1875.91 81.09
-1 -8 0 1844.42 80.19
1 -8 0 1987.3 80.09
1 -8 0 1865.41 80.69
1 -8 0 1878.31 82.49
-1 8 0 1882.71 80.79
1 8 0 1892.41 80.39
-1 8 0 1858.81 82.39
1 8 0 1921.01 80.49
-1 8 0 1931.01 82.49
1 8 0 1866.11 80.59
-2 -8 0 1385.96 60.49
2 -8 0 1398.46 63.69
2 -8 0 1351.16 61.09
2 -8 0 1346.27 60.89
-2 -8 0 1335.07 60.39
2 8 0 1367.26 60.59
2 8 0 1386.46 60.89
-2 8 0 1356.96 60.59
-2 8 0 1461.65 59.89
-2 8 0 1413.56 61.09
3 -8 0 154.78 18.6
3 -8 0 157.08 16.7
3 -8 0 159.98 15.5
-3 -8 0 142.69 13.6
-3 -8 0 144.79 14.6
-3 -8 0 134.49 16.1
-3 8 0 163.38 15
-3 8 0 140.69 14.7
-3 8 0 157.48 15.4
3 8 0 150.38 16.8
3 8 0 116.19 14.9
-4 -8 0 128.29 14.8
-4 -8 0 124.39 15.2
4 -8 0 150.38 16.7
-4 8 0 156.48 19.6
-4 8 0 129.39 15
5 -8 0 108.89 21.3
-5 -8 0 108.99 19.4
-5 -8 0 95.49 18.5
-5 8 0 142.39 21.6
0 -9 0 3.2 4.4
0 -9 0 -1 5.9
0 9 0 -1.3 6.2
0 9 0 0.7 4.7
0 9 0 -1.5 4
0 9 0 0.8 3.9
-1 -9 0 9 5.3
-1 -9 0 9.6 4.1
1 -9 0 -2.2 4.4
1 -9 0 3 5.2
1 -9 0 5 4.8
-1 -9 0 10.1 4.7
1 -9 0 -0.2 7.4
1 9 0 0.4 5.4
1 9 0 2.3 5
-1 9 0 4.6 5.2
-1 9 0 1.4 4.7
1 9 0 5.6 5.3
-2 -9 0 0.8 5.4
2 -9 0 6.5 9.5
2 -9 0 2.2 6.8
2 -9 0 7.7 5.2
-2 -9 0 1.8 4.9
-2 9 0 7.8 6.5
2 9 0 5.1 6.8
-2 9 0 0.6 4.8
-2 9 0 7.5 6.1
2 9 0 3.4 6.2
-3 -9 0 8.9 7.5
3 -9 0 -4.3 10.3
-3 -9 0 -8.6 6.5
3 -9 0 0 13.5
3 -9 0 10.6 8.7
3 9 0 1.7 10.4
3 9 0 24.2 11.4
-3 9 0 3.2 8.5
-3 9 0 10.6 8.3
-3 9 0 -10.7 7.5
4 -9 0 8.2 10.5
-4 -9 0 2.7 11.9
-4 -9 0 7.5 10.5
-4 9 0 16 12.2
-4 9 0 -1.9 11
-5 -9 0 0.7 13.7
5 -9 0 -10 17.3
-5 -9 0 -7 18.3
-5 9 0 -9.2 18.3
0 -10 0 1132.29 49.1
0 -10 0 1054.49 50.59
0 10 0 1143.09 49.3
0 10 0 1075.09 50.49
0 10 0 1103.09 49.8
-1 -10 0 518.15 29.6
-1 -10 0 540.25 27.5
1 -10 0 580.64 27.5
1 -10 0 545.35 27.4
1 -10 0 579.84 34.9
1 -10 0 551.94 28.7
-1 -10 0 578.94 27.6
1 10 0 538.05 28.3
1 10 0 556.84 28
-1 10 0 567.44 27.5
-1 10 0 547.85 27.9
1 10 0 579.74 27.9
2 -10 0 886.21 43.3
-2 -10 0 928.51 43.1
-2 -10 0 935.61 42.7
2 -10 0 904.91 47.1
2 10 0 909.51 43.4
2 10 0 921.31 43.1
-2 10 0 909.21 43.2
-2 10 0 932.41 42.3
-3 -10 0 87.59 11.2
3 -10 0 93.49 13.3
-3 -10 0 91.69 12.3
3 -10 0 78.59 11.8
-3 10 0 81.09 12.3
-3 10 0 86.39 12
-3 10 0 92.79 12.7
4 -10 0 81.69 15.2
-4 -10 0 60.39 13.4
-4 10 0 87.89 15.7
-4 10 0 40.2 14
-5 -10 0 124.39 22.3
-5 -10 0 120.99 19.5
5 -10 0 103.49 23.3
-5 10 0 119.89 23.9
0 -11 0 6.3 8.3
0 -11 0 4.5 5.3
0 11 0 -2.3 5.6
0 11 0 -8.8 5.2
0 11 0 -5.2 6.8
0 11 0 3.1 6.7
1 -11 0 146.39 15
1 -11 0 145.39 12.9
-1 -11 0 139.49 13.5
1 -11 0 126.79 15.5
1 -11 0 121.39 12.5
-1 -11 0 142.09 12.6
-1 -11 0 117.29 13.7
1 11 0 140.59 13.2
1 11 0 154.88 14.3
-1 11 0 147.19 13
1 11 0 151.58 14.5
1 11 0 149.59 13.2
-2 -11 0 196.68 16.1
2 -11 0 204.08 23.7
-2 -11 0 172.38 18
2 -11 0 207.88 18.7
2 -11 0 221.58 16.8
-2 -11 0 216.78 17.2
2 11 0 219.88 18.5
2 11 0 218.88 17.6
-2 11 0 209.68 18
-2 11 0 236.58 17
-3 -11 0 -4.2 7.8
3 -11 0 10.7 12.6
3 -11 0 -1.6 8.8
-3 -11 0 16.1 9.9
-3 11 0 -2.4 9.3
-3 11 0 13.8 9.8
-3 11 0 -17.5 10.4
4 -11 0 -11.9 13
-4 -11 0 17.1 12.3
-4 -11 0 16.1 14.8
-4 11 0 0.1 13.2
-4 11 0 5.6 15.2
-5 -11 0 -1.6 21.2
-5 -11 0 -1.5 15.4
5 -11 0 -16.2 20
-5 11 0 29.3 21.1
0 -12 0 881.01 39.9
0 -12 0 824.72 42.1
0 12 0 826.82 40.3
0 12 0 852.31 39.8
0 12 0 793.42 41.5
0 12 0 842.22 40
1 -12 0 525.85 29.8
-1 -12 0 509.05 28.9
1 -12 0 539.55 28
1 -12 0 516.75 32.3
-1 -12 0 515.65 27.7
1 -12 0 516.35 28.3
1 12 0 523.25 28.7
1 12 0 530.75 29.1
-1 12 0 533.75 27.8
-1 12 0 524.75 28.1
1 12 0 519.45 28.2
1 12 0 527.35 28.9
-1 12 0 553.54 28.1
-2 -12 0 346.07 21.1
-2 -12 0 365.76 22.3
2 -12 0 320.57 25
-2 -12 0 333.97 21.8
2 -12 0 354.86 22.5
2 12 0 352.46 24.4
-2 12 0 366.46 23.6
-2 12 0 368.76 23.2
2 12 0 351.96 22
-3 -12 0 149.99 17.4
3 -12 0 168.88 19.2
-3 -12 0 171.08 20.4
3 -12 0 143.69 17.9
-3 12 0 152.78 16
-3 12 0 159.68 19
-4 -12 0 199.78 23.1
4 -12 0 172.98 22.4
-4 -12 0 179.38 21.7
-4 12 0 180.88 24.6
0 -13 0 -10.1 7
0 -13 0 9 11.2
0 13 0 -3.2 10.3
0 13 0 0.9 9.4
0 13 0 -4.7 7
0 13 0 4.6 7.9
1 -13 0 92.19 11.3
1 -13 0 96.79 12
1 -13 0 80.19 14.8
-1 -13 0 54.19 9.9
1 13 0 76.39 11.9
1 13 0 85.99 11.7
-1 13 0 89.19 11.4
1 13 0 57.09 12.1
1 13 0 88.79 12.6
-1 13 0 75.19 11.7
-2 -13 0 87.99 12.4
-2 -13 0 74.69 11
2 -13 0 71.39 11.5
2 -13 0 103.59 15.8
-2 -13 0 96.79 12.1
-2 13 0 76.49 12.5
-2 13 0 86.09 12.9
2 13 0 87.79 12.7
3 -13 0 11.1 11.3
-3 13 0 12.9 12.5
-3 13 0 27.6 13.9
-4 -13 0 78.19 15.8
-4 -13 0 72.79 20.6
4 -13 0 44 18.3
-4 13 0 94.89 18.8
0 -14 0 58.99 14.7
0 -14 0 79.19 10.6
0 14 0 79.69 11.7
0 14 0 56.09 13.1
0 14 0 76.99 13.9
1 -14 0 231.38 18.4
1 -14 0 183.48 21.1
1 -14 0 203.18 18.2
-1 -14 0 191.28 21.9
-1 -14 0 209.78 18.9
1 14 0 224.68 18.7
1 14 0 193.88 20.2
-1 14 0 212.58 19
-1 14 0 176.38 20.9
-2 -14 0 323.27 22.2
-2 -14 0 285.57 23.5
2 -14 0 288.67 23.2
-2 -14 0 290.07 22.6
2 -14 0 313.97 27.7
2 14 0 296.87 22.4
-2 14 0 279.67 25.1
-2 14 0 319.37 23.6
3 -14 0 406.66 29.8
-3 -14 0 366.86 28.3
-3 -14 0 380.56 30.8
-3 14 0 391.36 29.3
-4 -14 0 77.09 17.1
4 -14 0 106.59 22.5
-4 -14 0 96.99 21.4
-4 14 0 119.49 21.2
0 -15 0 12.7 10.1
0 -15 0 -23.6 14.8
0 15 0 3.5 10.4
1 -15 0 0.8 9.7
-1 -15 0 10.8 9.4
-1 -15 0 11.9 13.1
1 -15 0 0.3 9.7
1 15 0 1.8 10.2
-1 15 0 12.4 10.7
1 15 0 25.5 13.4
2 -15 0 78.59 16.9
-2 -15 0 79.89 13.7
2 -15 0 40.6 13.7
2 15 0 39.8 13.3
-2 15 0 37.4 12.6
2 15 0 33.9 14.8
-3 -15 0 -13.2 14.8
-3 -15 0 7.3 12.5
3 -15 0 2.6 14.8
-3 15 0 -1.5 14.7
-4 -15 0 6.1 21.6
-4 -15 0 14.2 16.5
4 -15 0 35.1 22.3
-4 15 0 -12.1 20
0 -16 0 263.87 23.4
0 -16 0 271.27 23.5
0 16 0 284.77 23.9
-1 -16 0 377.76 27.4
1 -16 0 397.66 27.3
1 -16 0 362.96 27.8
-1 -16 0 355.86 32.1
1 16 0 376.66 28.6
-1 16 0 402.06 28.3
2 -16 0 131.79 21
-2 -16 0 120.89 18.1
-2 -16 0 101.99 17
-2 16 0 133.79 18.3
2 16 0 129.89 18
2 16 0 141.49 19.3
-3 -16 0 155.48 21.8
3 -16 0 166.18 22.3
-3 -16 0 151.38 19.4
0 -17 0 -1.6 21.7
0 -17 0 1.6 17.4
0 17 0 10.4 12.8
-1 -17 0 6.8 13.8
1 -17 0 -14.7 12.7
-1 -17 0 10.6 19.1
1 17 0 8.2 14.4
-1 17 0 5.1 13.1
-2 -17 0 0.1 14.4
-2 -17 0 1.6 16.7
2 -17 0 -7.6 15.4
2 17 0 -3.4 15.2
-2 17 0 -13.1 14.3
-3 -17 0 10.5 18
-3 -17 0 -3.8 14.9
3 -17 0 -2.1 19.1
-3 17 0 1.5 19.6
0 -18 0 326.67 29.4
0 -18 0 266.07 30.1
0 18 0 295.87 28.5
-1 -18 0 225.88 29.4
1 -18 0 275.27 28.8
1 -18 0 294.57 30.7
1 18 0 293.27 29.2
-1 18 0 329.47 29.2
-2 -18 0 94.19 20.3
2 -18 0 113.59 22.7
2 18 0 90.29 21.1
-2 18 0 105.59 19.9
0 -19 0 -42.7 15.8
0 -19 0 7.8 18
0 19 0 -14.2 16.8
-1 -19 0 7.9 17.8
1 -19 0 -4.1 17.1
1 -19 0 -7.3 17
-1 19 0 2.6 18.2
1 19 0 8.4 17.3
2 -19 0 -18.6 22.1
2 19 0 -23.6 20.1
-2 19 0 -19.4 19
0 -20 0 475.35 40.7
0 -20 0 410.36 38.3
0 20 0 466.05 40.6
-6 0 1 -4.2 18
-6 0 1 36.2 19.6
5 0 -1 -16.3 20.4
-5 0 1 -8.2 11.5
5 0 -1 14.1 14.7
-5 0 1 -10.6 13.5
4 0 -1 34.6 9.5
-4 0 1 43.3 11
4 0 -1 41.5 11.2
3 0 -1 62.89 47.7
3 0 -1 94.69 47.8
2 0 -1 0.3 3.5
-2 0 1 0.6 3.5
2 0 -1 3 3.3
-2 0 1 -2.9 2.4
2 0 -1 -6.8 3.1
1 0 -1 -2 1.4
-1 0 1 -1 1.6
1 0 -1 -0.6 2
-1 0 1 -1.2 1.7
1 0 1 -3.6 1.7
-1 0 -1 1.9 1.9
-1 0 -1 -1.9 1.3
1 0 1 -0.6 1.6
-1 0 -1 1 1.8
-2 0 -1 -0.8 3.4
2 0 1 6 3.4
2 0 1 10.9 4.3
-2 0 -1 12.6 3.8
-3 0 -1 17.2 10.7
-4 0 -1 10.2 11
4 0 1 60.39 11.9
-4 0 -1 44.2 9.7
-4 0 -1 25.1 7.9
4 0 1 47.2 9.4
5 0 1 5.7 19.7
5 0 1 30.5 24.2
-5 0 -1 14.4 11
-6 0 -1 -13.6 17.1
-6 0 -1 1.4 17.4
6 0 1 41 24.7
-6 -1 1 31.2 18.2
6 -1 -1 46.5 23.9
-6 -1 1 29.6 20.3
-6 1 1 22.6 17.4
-6 1 1 7.3 19
5 -1 -1 272.27 37.1
5 -1 -1 294.57 29
-5 -1 1 281.77 26.5
-5 -1 1 241.18 24.5
-5 1 1 256.37 29
-5 1 1 283.67 23.9
5 1 -1 241.48 29
-4 -1 1 326.97 25.3
4 -1 -1 377.66 25
4 -1 -1 373.16 26.7
-4 -1 1 354.56 21.8
-4 -1 1 307.67 22
4 -1 -1 333.57 23.6
4 1 -1 314.47 24.9
4 1 -1 326.07 24.3
-4 1 1 378.46 22.1
-4 1 1 349.27 24.5
-4 1 1 368.76 21.7
-3 -1 1 339.37 18.4
-3 -1 1 348.37 20.3
-3 -1 1 334.47 18.7
3 -1 -1 364.26 21.5
3 -1 -1 338.47 19.7
3 -1 -1 336.37 20.2
3 1 -1 322.37 19.9
-3 1 1 300.77 18.4
-3 1 1 320.77 19.4
-2 -1 1 384.86 19.3
-2 -1 1 406.96 20.4
2 -1 -1 402.56 20.1
-2 -1 1 429.86 19.8
2 -1 -1 396.46 19.7
2 -1 -1 420.26 20.2
-2 1 1 425.36 20.1
2 1 -1 421.86 20.6
-2 1 1 396.36 19.8
2 1 -1 425.06 19.7
1 -1 -1 3798.72 140.89
-1 -1 1 3475.55 140.29
-1 -1 1 3454.15 140.89
1 -1 -1 3256.37 140.39
1 -1 -1 3172.18 140.39
-1 1 1 3275.67 140.39
1 1 -1 3346.97 140.29
-1 1 1 3244.08 140.39
-1 1 1 3656.43 140.89
0 -1 -1 2801.12 117.69
0 -1 -1 2953.5 117.59
0 1 1 2829.02 117.79
1 -1 1 761.02 32.5
1 -1 1 761.52 32.2
-1 -1 -1 764.32 32.3
-1 1 -1 751.82 32.4
-1 1 -1 745.03 32.2
1 1 1 726.63 31.8
1 1 1 750.72 32.8
1 1 1 757.82 32.2
-2 -1 -1 1363.36 59.49
-2 -1 -1 1306.47 57.99
-2 -1 -1 1441.16 58.89
2 -1 1 1360.86 59.29
-2 1 -1 1346.87 59.09
-2 1 -1 1389.76 58.79
2 1 1 1354.66 59.79
2 1 1 1397.76 58.79
-3 -1 -1 430.06 22
3 -1 1 453.65 23.7
3 -1 1 403.36 23.9
-3 -1 -1 431.86 23.2
-3 1 -1 442.46 23.2
3 1 1 427.06 24.6
-3 1 -1 441.56 21.8
3 1 1 473.95 23.8
-3 1 -1 477.55 27.6
-4 -1 -1 248.78 23.6
-4 -1 -1 292.87 18.1
4 -1 1 266.37 22.9
4 -1 1 290.37 21.7
-4 -1 -1 298.57 20.1
-4 1 -1 236.48 22.7
-4 1 -1 266.47 18.4
4 1 1 248.28 21.3
4 1 1 256.97 20.9
-4 1 -1 270.37 19.7
5 -1 1 100.39 24.2
-5 -1 -1 84.19 13.9
5 -1 1 83.49 23.3
5 1 1 82.19 20.4
5 1 1 111.09 24.6
-5 1 -1 124.29 29
-5 1 -1 89.89 13.3
-6 -1 -1 151.08 20.4
6 -1 1 112.39 27.2
-6 -1 -1 134.89 23.5
-6 1 -1 133.29 22.7
6 1 1 111.79 27.6
-6 1 -1 157.68 21.3
-6 -2 1 3.7 15.8
-6 -2 1 -1.4 19.6
6 -2 -1 43.9 24.4
-6 2 1 17.7 20.3
-6 2 1 -3.2 18.2
-5 -2 1 11.2 11.7
5 -2 -1 -6.1 13.7
5 -2 -1 7.1 21.9
-5 -2 1 9.5 12.4
-5 2 1 -9.3 10.8
-5 2 1 -14.6 16.1
-4 -2 1 28.3 10.9
4 -2 -1 46.7 11.1
4 -2 -1 34.8 11.4
-4 -2 1 59.19 9.5
4 -2 -1 48.6 15.2
4 2 -1 27.7 11.2
4 2 -1 71.99 12
-4 2 1 44.9 10.7
-3 -2 1 8.6 7.1
-3 2 1 8.5 5.7
3 2 -1 6.4 6.7
3 2 -1 13.4 8.1
2 -2 -1 61.49 7.2
2 -2 -1 84.69 8.6
2 -2 -1 81.89 6.8
-2 -2 1 55.79 6.6
-2 -2 1 65.99 6.6
-2 -2 1 73.19 8.1
-2 2 1 70.19 6.6
2 2 -1 70.19 6.6
-2 2 1 55.49 6.7
1 -2 -1 1821.42 76.59
1 -2 -1 1902.31 77.49
-1 -2 1 1857.71 76.59
-1 -2 1 1787.92 76.79
1 -2 -1 1805.12 76.89
-1 2 1 1877.71 76.59
1 2 -1 1859.01 76.49
-1 2 1 1961.6 77.59
-1 2 1 1779.22 76.89
1 2 -1 1793.52 76.69
0 -2 -1 226.68 10.1
0 -2 1 235.58 9.8
0 -2 -1 225.88 10.2
0 -2 1 223.28 9.9
0 2 1 216.28 10.5
0 2 -1 218.28 9.8
-1 -2 -1 55.59 4.4
1 -2 1 59.29 4.6
-1 -2 -1 61.59 4.7
-1 -2 -1 53.89 5.6
1 -2 1 67.49 5.1
1 2 1 59.09 4.4
-1 2 -1 54.79 4.4
1 2 1 56.99 5.7
-1 2 -1 62.69 4.7
1 2 1 57.59 4.3
1 2 1 63.89 4.4
2 -2 1 144.59 10.5
-2 -2 -1 167.38 12.9
-2 -2 -1 170.48 10
-2 -2 -1 145.49 9.5
2 -2 1 166.28 10.7
2 2 1 169.38 10.3
-2 2 -1 143.69 9.8
-2 2 -1 160.58 10.4
2 2 1 143.29 11.7
-3 -2 -1 1.9 7.5
3 2 1 14.5 6.4
-4 -2 -1 68.29 10.1
4 -2 1 48.6 10.6
-4 -2 -1 49.6 13
4 -2 1 46.2 10.8
-4 2 -1 54.89 11.7
4 2 1 57.09 12.4
4 2 1 61.79 12.5
-4 2 -1 100.69 12.3
5 -2 1 -30.3 22.2
-5 -2 -1 12.7 12.2
-5 -2 -1 12.6 12
5 -2 1 12.5 15.5
5 2 1 -0.5 15.4
-5 2 -1 22 23.7
-5 2 -1 5.6 10.7
-6 -2 -1 18.3 18
6 -2 1 14.5 22.5
-6 2 -1 -2.3 20.3
-6 -3 1 57.09 19.2
6 -3 -1 85.39 27.1
-6 -3 1 57.19 21.5
-6 3 1 114.19 22.2
-6 3 1 125.49 23.9
5 -3 -1 109.79 18.6
-5 -3 1 125.19 15.8
5 -3 -1 99.79 23.5
-5 -3 1 111.09 16.4
-5 3 1 124.99 15.6
-5 3 1 132.09 19.5
4 -3 -1 257.37 22.7
-4 -3 1 274.57 19
4 -3 -1 245.08 27.1
-4 -3 1 257.67 18.6
-4 -3 1 269.47 23.9
4 -3 -1 268.27 20.7
-4 3 1 246.88 19.3
-4 3 1 278.27 21.7
3 -3 -1 881.91 40.5
-3 -3 1 871.71 39.7
3 -3 -1 738.03 43.2
3 -3 -1 865.31 41.6
-3 -3 1 862.91 39.5
-3 3 1 884.21 40
-3 3 1 922.01 40.4
3 3 -1 844.02 39.5
-2 -3 1 844.02 40.9
2 -3 -1 873.91 38.4
-2 -3 1 861.91 38.2
2 -3 -1 842.82 39.8
2 -3 -1 883.81 39.5
-2 3 1 884.81 38.3
1 -3 -1 2310.87 96.49
1 -3 -1 2346.97 97.59
-1 -3 1 2462.45 96.49
1 -3 -1 2311.97 96.89
-1 3 1 2264.67 96.39
1 3 -1 2345.57 96.29
-1 3 1 2321.37 96.89
1 3 -1 2246.68 96.59
0 -3 1 200.88 9.4
0 -3 -1 189.48 10
0 -3 -1 197.28 9.6
0 -3 1 202.58 9.2
0 3 1 191.98 10.1
0 3 1 189.48 9.9
0 3 1 193.38 9.5
0 3 1 199.58 9.5
0 3 -1 206.08 9.2
0 3 -1 196.68 9.2
1 -3 1 2363.86 95.09
-1 -3 -1 2051.89 95.79
-1 -3 -1 2247.88 94.69
-1 -3 -1 2208.68 94.79
-1 -3 -1 2291.27 95.89
1 3 1 2246.18 94.79
-1 3 -1 2255.17 94.99
-1 3 -1 2319.77 95.19
-1 3 -1 2436.76 94.19
1 3 1 2329.97 94.89
1 3 1 2370.76 95.19
2 -3 1 280.67 14.9
2 -3 1 283.17 15
-2 -3 -1 265.37 16.1
-2 -3 -1 262.57 13.8
-2 -3 -1 268.77 14.5
-2 3 -1 270.57 14.4
2 3 1 269.07 14.1
2 3 1 267.37 13.8
2 3 1 257.97 15.7
3 -3 1 836.82 39.6
-3 -3 -1 855.11 38.9
-3 -3 -1 809.72 40.8
-3 -3 -1 831.52 38.1
3 -3 1 808.02 39.2
-3 3 -1 807.72 38.8
3 3 1 818.42 41.1
-3 3 -1 852.41 40.2
3 3 1 867.41 39.1
4 -3 1 321.47 30.8
-4 -3 -1 342.07 21.3
4 -3 1 328.77 24.9
-4 -3 -1 328.77 21.9
-4 -3 -1 263.57 25.1
4 -3 1 326.87 23.2
-4 3 -1 317.27 19.4
4 3 1 331.37 23.9
4 3 1 321.17 23.8
-4 3 -1 291.87 24.1
-4 3 -1 351.26 22.4
-5 -3 -1 205.98 21.5
-5 -3 -1 182.48 21.2
5 -3 1 157.58 22.4
5 3 1 235.18 21
-5 3 -1 177.38 20.7
-5 -4 1 8.8 11.5
-5 -4 1 0 13.5
5 -4 -1 14.6 15
-5 4 1 -15.3 13.8
-4 -4 1 10.9 8
4 -4 -1 18.5 10.6
-4 -4 1 5 6.7
4 -4 -1 3.7 9.5
4 -4 -1 6.8 14.7
-4 -4 1 -2.3 12.2
-4 4 1 -3 9.8
-4 4 1 -3.9 8.3
3 -4 -1 34.5 6.8
-3 -4 1 54.29 7.7
3 -4 -1 43.5 10.5
3 -4 -1 36.7 7.9
-3 -4 1 45.9 8.9
-3 -4 1 42.3 6.7
-3 4 1 41.2 6.7
3 4 -1 36.5 7.5
-3 4 1 51.09 8.2
2 -4 -1 83.99 10.2
-2 -4 1 71.99 9.4
2 -4 -1 64.39 7.2
-2 -4 1 71.39 7.7
2 -4 -1 81.09 8.1
-2 -4 1 65.89 7.1
-2 4 1 74.79 7.6
-2 4 1 82.39 7.5
2 4 -1 81.89 7.9
2 4 -1 79.69 7.4
1 -4 -1 283.27 15.1
1 -4 -1 267.87 13.8
-1 -4 1 289.87 13.4
-1 -4 1 260.97 13.6
1 -4 -1 291.27 13.6
1 4 -1 267.97 13.6
-1 4 1 275.47 14
-1 4 1 292.47 13.5
1 4 -1 290.27 13.3
-1 4 1 277.87 15.4
-1 4 1 275.77 13.3
0 -4 1 393.06 16.6
0 -4 -1 365.56 17
0 -4 1 381.46 16.9
0 -4 -1 340.97 17.4
0 -4 1 382.66 17.5
0 4 1 349.77 17.6
0 4 1 370.56 16.9
0 4 -1 385.36 16.6
0 4 1 360.36 17.3
0 4 -1 360.26 16.7
0 4 -1 400.86 16.6
0 4 1 345.97 16.8
-1 -4 -1 21.8 3.4
1 -4 1 28.9 3.8
1 -4 1 26 3.9
-1 -4 -1 23.7 3.8
-1 -4 -1 24.8 3.4
-1 4 -1 26.4 3
-1 4 -1 29 3.9
1 4 1 25.7 3.6
-1 4 -1 21 3.6
1 4 1 26.8 3.7
1 4 1 26.8 3.6
2 -4 1 116.49 9
-2 -4 -1 103.09 8.1
-2 -4 -1 113.69 8.6
2 -4 1 124.19 9.3
-2 -4 -1 102.39 10.6
2 4 1 102.79 8.6
-2 4 -1 88.19 8
2 4 1 113.19 7.9
-2 4 -1 104.59 9
3 -4 1 16.9 7.3
-3 -4 -1 9.5 7.9
-3 -4 -1 21.4 5.4
-3 -4 -1 21 5.8
3 -4 1 15.2 6.4
3 -4 1 4.9 9.2
3 4 1 7.7 6.1
3 4 1 15.4 4.9
-3 4 -1 6.8 6.3
-3 4 -1 -4 4.9
4 -4 1 32.6 16.5
-4 -4 -1 41.2 9.2
4 -4 1 27.9 10.1
4 -4 1 41.3 12.2
-4 -4 -1 34.6 8.8
-4 4 -1 41.8 9.7
4 4 1 22.9 13.5
-4 4 -1 23.1 10.4
5 -4 1 12.8 15.2
-5 -4 -1 7.4 13.6
-5 -4 -1 -8.4 12.3
-5 4 -1 4.4 10.6
-5 -5 1 202.08 23.1
5 -5 -1 171.88 23.9
-5 5 1 191.18 21.7
4 -5 -1 416.36 34.3
4 -5 -1 407.66 27.5
-4 -5 1 403.26 24.9
-4 -5 1 407.66 24.7
4 -5 -1 416.16 25.9
-4 5 1 391.66 26.6
-4 5 1 386.96 25.1
3 -5 -1 315.17 18.6
-3 -5 1 304.97 18
3 -5 -1 337.07 19.8
-3 -5 1 301.07 18.4
-3 -5 1 312.97 21.9
3 -5 -1 308.57 26.7
3 5 -1 304.07 18.7
-3 5 1 310.47 18.4
-3 5 1 306.77 18.9
2 -5 -1 418.26 21.2
2 -5 -1 431.06 23.6
-2 -5 1 427.76 21.2
-2 -5 1 439.76 21
2 -5 -1 423.76 21.6
-2 -5 1 458.75 23.5
2 5 -1 427.36 20.8
2 5 -1 424.86 21.3
-2 5 1 419.46 21.2
-2 5 1 432.16 21.4
-1 -5 1 2825.82 112.19
1 -5 -1 2660.73 112.49
1 -5 -1 2688.93 112.79
-1 -5 1 2593.04 112.09
1 -5 -1 2732.93 113.89
-1 5 1 2685.63 112.79
-1 5 1 2581.84 111.99
1 5 -1 2637.94 112.19
1 5 -1 2766.82 112.09
-1 5 1 2801.92 112.09
-1 5 1 2688.93 113.79
0 -5 -1 748.63 35
0 -5 1 820.12 34.2
0 -5 -1 801.62 34.5
0 -5 1 772.22 34.9
0 5 1 763.02 34.9
0 5 1 794.82 34.4
0 5 1 805.62 34.5
0 5 -1 753.42 34.3
0 5 -1 813.12 34
0 5 -1 843.12 34.1
-1 -5 -1 1522.85 64.69
-1 -5 -1 1470.85 64.69
1 -5 1 1526.05 65.19
1 -5 1 1540.65 65.09
1 -5 1 1527.05 66.29
-1 -5 -1 1523.55 64.99
1 5 1 1545.05 64.89
1 5 1 1550.84 64.99
-1 5 -1 1518.65 65.09
-1 5 -1 1644.44 64.19
1 5 1 1526.45 65.09
-1 5 -1 1491.45 64.89
2 -5 1 980.1 42.6
2 -5 1 955.7 42.6
2 -5 1 929.51 44.1
-2 -5 -1 917.31 41.7
-2 -5 -1 925.41 43.9
-2 -5 -1 961.3 42.2
2 5 1 961.9 42.3
-2 5 -1 924.51 42.1
-2 5 -1 966.7 42.4
2 5 1 932.51 41.8
-3 -5 -1 453.85 23.1
-3 -5 -1 425.76 23.7
3 -5 1 430.26 24.4
3 -5 1 457.15 28.7
-3 -5 -1 442.76 26.4
3 5 1 455.45 24.2
3 5 1 445.96 24.3
-3 5 -1 450.85 24.8
-3 5 -1 455.15 24
4 -5 1 102.09 15.4
-4 -5 -1 119.49 14.9
-4 -5 -1 115.49 13.1
4 -5 1 102.59 19.4
4 -5 1 112.79 14
-4 5 -1 113.29 14.1
-4 5 -1 92.69 15.2
-5 -5 -1 244.18 25.7
-5 -5 -1 180.08 21.1
5 -5 1 214.68 24.4
-5 5 -1 217.68 21.2
-5 5 -1 264.37 31.1
-5 -6 1 21.4 12.1
-5 -6 1 17.9 15.4
-5 6 1 17.8 15.9
-4 -6 1 22.4 7.6
4 -6 -1 -2 8.7
4 -6 -1 15.5 16
-4 -6 1 37.7 9.7
-4 6 1 17.1 9.1
-4 6 1 -5.7 10.9
-3 -6 1 5.3 5.7
-3 -6 1 6.4 9.8
3 -6 -1 12.2 6
3 -6 -1 -1 7.7
-3 -6 1 19.2 7
3 -6 -1 18.4 10.7
3 6 -1 10 6.6
-3 6 1 16.7 7.1
-3 6 1 4.2 6.1
2 -6 -1 169.78 11.4
2 -6 -1 179.08 14.9
-2 -6 1 163.38 11
-2 -6 1 157.88 11.2
2 -6 -1 170.58 12.6
2 6 -1 167.78 11.9
-2 6 1 145.69 11.6
-2 6 1 173.28 10.9
-2 6 1 180.38 11.5
2 6 -1 165.68 11.1
1 -6 -1 285.97 14.7
-1 -6 1 287.97 14.5
-1 -6 1 275.57 14.5
1 -6 -1 283.37 15.2
1 -6 -1 276.37 16.6
-1 -6 1 283.97 14
1 6 -1 298.77 14.5
-1 6 1 287.37 17.1
-1 6 1 303.67 14.8
-1 6 1 282.47 15
1 6 -1 289.77 14.8
0 -6 1 304.37 14.9
0 -6 -1 290.67 15.8
0 -6 -1 307.37 15
0 -6 1 288.47 15.8
0 6 1 319.87 16.6
0 6 -1 312.17 14.7
0 6 1 320.07 15.2
0 6 -1 308.67 14.7
0 6 1 295.87 15.8
0 6 -1 294.77 15
0 6 1 284.57 14.9
-1 -6 -1 104.29 7.7
-1 -6 -1 91.89 7.9
1 -6 1 102.19 7.8
-1 -6 -1 105.79 8.3
1 -6 1 109.69 10.3
1 -6 1 109.09 8.1
1 -6 1 106.39 8
-1 6 -1 98.89 9.1
1 6 1 115.69 8.4
-1 6 -1 103.09 7.8
1 6 1 101.69 9.9
-1 6 -1 113.99 7.5
1 6 1 102.79 7.9
2 -6 1 54.79 8.7
-2 -6 -1 54.59 6.8
2 -6 1 62.19 9.4
-2 -6 -1 69.49 9.9
2 -6 1 69.59 8.1
-2 -6 -1 45.4 6.5
-2 6 -1 61.79 6.9
2 6 1 67.99 7.4
-2 6 -1 62.99 8.2
2 6 1 59.09 7.2
-2 6 -1 68.29 6.3
2 6 1 61.19 7.3
3 -6 1 80.09 13.9
3 -6 1 69.59 10
-3 -6 -1 60.99 8
-3 -6 -1 54.49 8.6
-3 -6 -1 63.29 12
3 -6 1 56.29 8.8
-3 6 -1 71.79 8.9
3 6 1 61.89 9.8
-3 6 -1 72.59 9.9
3 6 1 63.29 9.6
4 -6 1 22.9 12.9
4 -6 1 -5.1 17.5
-4 -6 -1 1.3 8.5
-4 -6 -1 9.2 9.3
4 -6 1 12.9 9.3
-4 6 -1 -1 9.3
-5 -6 -1 30.6 14.3
5 -6 1 39.7 17.8
-5 6 -1 38.1 17.4
5 -7 -1 144.99 22.1
-5 -7 1 158.68 20.4
-5 -7 1 136.49 18.9
-5 7 1 160.78 22
4 -7 -1 133.09 17.1
-4 -7 1 122.79 15.8
4 -7 -1 97.79 19.2
-4 7 1 93.59 14.3
-4 7 1 141.09 15.5
-3 -7 1 769.92 38.4
3 -7 -1 802.22 43
-3 -7 1 805.12 42.4
3 -7 -1 798.92 38.9
3 -7 -1 804.22 39.7
-3 -7 1 822.92 38.4
-3 7 1 829.32 39.2
-3 7 1 807.12 38.6
3 7 -1 825.92 39.3
3 7 -1 800.42 38.7
2 -7 -1 500.05 24.6
-2 -7 1 483.25 24.4
-2 -7 1 502.15 24.1
2 -7 -1 503.05 25.3
2 -7 -1 491.45 27.5
2 7 -1 490.45 24.1
2 7 -1 492.55 25
-2 7 1 490.95 24.1
-2 7 1 512.65 24.2
-2 7 1 489.65 24.9
1 -7 -1 1171.38 50.09
1 -7 -1 1131.29 50.89
1 -7 -1 1147.79 50.19
1 -7 -1 1147.09 52.19
-1 -7 1 1132.09 50.09
-1 -7 1 1211.88 50.19
1 7 -1 1117.39 49.7
1 7 -1 1209.98 50.09
-1 7 1 1155.88 50.39
1 7 -1 1150.78 50.19
-1 7 1 1124.19 52.09
0 -7 1 358.66 17.2
0 -7 -1 377.06 17.9
0 -7 -1 348.97 18.9
0 -7 1 361.36 18.8
0 7 -1 364.16 17.4
0 7 -1 369.06 17.3
0 7 1 318.77 18.4
0 7 -1 353.46 17.7
0 7 1 361.46 19.1
0 7 1 334.37 18.1
0 7 -1 349.37 18.6
0 7 1 373.66 17.8
1 -7 1 973.5 44.9
1 -7 1 991.7 43.5
-1 -7 -1 919.81 42.8
1 -7 1 1043.2 42.5
-1 -7 -1 947.21 42.9
1 -7 1 949.4 43.1
-1 -7 -1 995.4 43.2
-1 7 -1 1024.7 42.3
-1 7 -1 951.7 43.1
1 7 1 979 43.1
1 7 1 969.3 43.2
1 7 1 966.3 43.5
-2 -7 -1 791.52 38.8
-2 -7 -1 784.02 35
2 -7 1 776.32 36.6
2 -7 1 806.42 39.4
-2 -7 -1 758.32 36.3
2 -7 1 793.22 37
-2 -7 -1 761.02 35.9
-2 7 -1 782.82 36.6
-2 7 -1 825.92 35.1
2 7 1 745.43 36.2
2 7 1 810.92 35.9
-2 7 -1 783.42 36.3
2 7 1 798.42 36.6
-3 -7 -1 295.47 18.7
3 -7 1 304.07 20
3 -7 1 264.17 25.3
3 -7 1 278.57 19.3
-3 -7 -1 299.67 18.8
-3 -7 -1 271.77 23.1
3 7 1 255.17 19.1
-3 7 -1 272.17 18
3 7 1 313.17 20
-3 7 -1 274.27 19.4
-3 7 -1 284.67 17.3
4 -7 1 350.56 28.9
-4 -7 -1 333.07 24.1
-4 -7 -1 311.87 23.1
4 -7 1 323.77 25.4
-4 7 -1 313.97 24
5 -7 1 141.69 21.4
-5 -7 -1 79.89 17.6
-5 -7 -1 104.19 18.2
-5 7 -1 104.69 19.6
5 -8 -1 16.5 17.4
-5 -8 1 0.3 16.6
-5 -8 1 34.9 14.8
-5 8 1 -2.4 18.3
4 -8 -1 56.39 12
-4 -8 1 48.8 12
-4 -8 1 59.39 11.5
-4 8 1 52.59 11.6
-4 8 1 69.49 13.2
3 -8 -1 20.8 12.7
-3 -8 1 19.7 8.2
3 -8 -1 27.6 9.4
-3 -8 1 19.4 6.6
-3 -8 1 24.7 11.6
3 -8 -1 22.1 7.1
-3 8 1 3.9 7.5
3 8 -1 3.9 7.7
-3 8 1 30.2 8.9
3 8 -1 10.5 9.8
-3 8 1 10.1 7.7
2 -8 -1 158.58 17.2
-2 -8 1 171.18 12.9
-2 -8 1 161.98 11.6
2 -8 -1 160.08 13.7
2 -8 -1 160.38 12.2
2 8 -1 183.18 13.6
2 8 -1 143.39 11.9
-2 8 1 185.48 13.1
-2 8 1 128.79 11.5
-2 8 1 138.39 12.3
-1 -8 1 114.09 9
1 -8 -1 135.39 9.3
-1 -8 1 106.59 9.3
1 -8 -1 110.19 10.7
1 -8 -1 100.99 9.1
1 -8 -1 108.49 12.7
-1 -8 1 103.69 9.1
-1 8 1 121.19 10
-1 8 1 109.99 10
1 8 -1 100.99 10.4
-1 8 1 125.19 12.9
1 8 -1 109.09 8.7
1 8 -1 110.99 9.6
0 -8 1 5.9 3.5
0 -8 -1 4.7 4.4
0 -8 1 -0.4 5
0 8 1 1.4 5.5
0 8 1 7.1 4.5
0 8 -1 0.4 4.9
0 8 -1 3.2 3.3
0 8 -1 1.4 4.9
0 8 1 5.5 3.7
0 8 1 -0.4 3.7
1 -8 1 166.28 10.4
-1 -8 -1 147.59 10.7
-1 -8 -1 146.79 10.9
1 -8 1 141.49 14.2
1 -8 1 143.39 11.2
1 -8 1 157.18 11.2
-1 -8 -1 146.19 11.3
1 8 1 137.49 10.9
-1 8 -1 156.78 10.5
1 8 1 164.58 11.3
1 8 1 159.38 11.9
-1 8 -1 172.08 10.6
2 -8 1 129.39 16.3
2 -8 1 125.49 12.6
-2 -8 -1 130.29 12
-2 -8 -1 125.69 10.4
-2 -8 -1 153.58 15.9
2 -8 1 139.99 12.2
-2 -8 -1 151.08 11.4
-2 8 -1 127.69 12.3
2 8 1 133.09 12.7
2 8 1 131.49 12.1
-2 8 -1 120.89 11.6
3 -8 1 142.59 16.6
-3 -8 -1 112.39 15.6
3 -8 1 112.19 13.1
3 -8 1 113.79 16.8
-3 -8 -1 98.39 11.5
-3 -8 -1 153.98 14.5
3 8 1 128.49 15.4
3 8 1 140.89 16.7
-3 8 -1 121.69 13.2
-3 8 -1 124.69 13.4
-3 8 -1 99.49 12.2
4 -8 1 3.2 11.5
-4 -8 -1 -3.8 10.4
-4 -8 -1 -8.3 9.6
-4 8 -1 2.4 10.8
-4 8 -1 7.7 11.3
-5 -8 -1 16 14.9
-5 -8 -1 -1.6 16.7
5 -8 1 7 17.7
-5 8 -1 26.4 18.2
5 -9 -1 39.5 19.2
-5 -9 1 57.39 15.5
-5 -9 1 43.7 18.7
-5 9 1 77.19 20.1
-4 -9 1 60.99 13.6
4 -9 -1 58.49 13.1
-4 -9 1 74.29 12.4
-4 9 1 74.09 14.2
-4 9 1 62.79 13.5
-3 -9 1 639.64 31.3
3 -9 -1 613.14 33.6
3 -9 -1 599.84 38.2
-3 -9 1 626.64 31.8
3 -9 -1 601.14 32.2
-3 9 1 624.24 31.8
-3 9 1 577.84 31.1
3 9 -1 558.94 33.5
3 9 -1 599.84 32.1
-3 9 1 619.64 32.6
2 -9 -1 694.63 38.6
-2 -9 1 712.33 34.4
-2 -9 1 730.03 34.3
2 -9 -1 746.23 39
2 -9 -1 744.63 34.3
2 9 -1 695.13 34.1
-2 9 1 717.93 34.9
2 9 -1 699.43 35.2
-2 9 1 751.52 34.3
-1 -9 1 186.88 12.6
1 -9 -1 167.28 13.6
1 -9 -1 199.28 12.9
-1 -9 1 188.48 11.9
1 -9 -1 171.58 12.2
1 -9 -1 194.18 15.9
-1 -9 1 190.58 12.3
1 9 -1 206.58 13.1
1 9 -1 171.68 12.8
-1 9 1 161.98 13
-1 9 1 169.78 15.4
-1 9 1 171.18 13.3
1 9 -1 172.28 12
0 -9 -1 1786.32 80.69
0 -9 1 1892.81 79.09
0 -9 1 1776.42 80.39
0 -9 -1 1902.01 79.49
0 9 -1 1925.91 79.19
0 9 1 1861.41 80.19
0 9 1 1801.02 80.79
0 9 1 1860.91 79.29
0 9 -1 1863.01 78.89
0 9 -1 1836.32 79.49
0 9 1 1879.51 79.49
-1 -9 -1 1366.36 59.49
1 -9 1 1319.77 61.49
1 -9 1 1372.36 59.89
1 -9 1 1415.66 58.69
1 -9 1 1351.16 59.79
-1 -9 -1 1190.18 60.79
-1 -9 -1 1301.77 59.19
-1 9 -1 1428.26 58.69
1 9 1 1408.16 59.69
-1 9 -1 1313.07 59.19
1 9 1 1397.96 59.79
1 9 1 1386.06 59.99
-2 -9 -1 331.07 18.1
-2 -9 -1 332.27 19
2 -9 1 323.17 24.1
2 -9 1 354.26 19.7
2 -9 1 320.67 19.9
-2 -9 -1 319.57 19.5
2 9 1 332.27 20.1
-2 9 -1 310.37 18.2
2 9 1 315.37 20.1
2 9 1 325.27 18.8
-2 9 -1 321.77 19.3
-2 9 -1 321.47 19.4
-3 -9 -1 404.56 23.3
-3 -9 -1 335.37 29
3 -9 1 409.66 25.7
3 -9 1 376.46 24.1
3 -9 1 373.56 31.2
-3 -9 -1 372.36 23.4
-3 9 -1 360.66 23.6
-3 9 -1 387.66 24
3 9 1 374.06 25.4
-3 9 -1 412.66 22.5
-4 -9 -1 188.48 22.9
4 -9 1 194.08 21.7
-4 -9 -1 174.38 20.3
-4 9 -1 203.28 22.6
-4 9 -1 181.18 17.1
5 -9 1 110.39 22.1
-5 -9 -1 78.19 18.3
-5 -9 -1 86.19 20.2
-5 9 -1 85.49 21
-5 -10 1 -0.8 14.5
-5 -10 1 7.5 20.9
5 -10 -1 6 18.9
-5 10 1 2.3 19.5
4 -10 -1 0.7 11.3
-4 -10 1 0.7 10.8
-4 10 1 1.2 12
-4 10 1 -6.3 13.3
-3 -10 1 15.6 7.5
-3 -10 1 8.3 8.9
3 -10 -1 0.4 7.8
3 -10 -1 -11.9 10.6
-3 10 1 10.9 8.5
-3 10 1 8.4 9
-3 10 1 -2.3 9.1
2 -10 -1 19.7 9
2 -10 -1 19.1 11.7
-2 -10 1 35 7.3
-2 -10 1 33.7 7.2
2 -10 -1 21.5 6.7
-2 10 1 18.8 7.5
2 10 -1 36.1 9
-2 10 1 39.4 8.4
2 10 -1 26.1 7.6
-1 -10 1 -4 4.3
1 -10 -1 -4.9 5
-1 -10 1 -2.5 4.8
1 -10 -1 1.7 6.6
1 -10 -1 -10.7 7.6
1 -10 -1 6 5.6
-1 -10 1 0.7 5.4
1 10 -1 -8.9 5.9
1 10 -1 -0.1 5
-1 10 1 -7.1 7.7
-1 10 1 2.6 5.4
-1 10 1 10.3 6.1
1 10 -1 -3.8 5.8
0 -10 -1 9.3 7.5
0 -10 1 -6.8 6.4
0 -10 1 8.8 5.1
0 -10 -1 9.3 5.2
0 10 1 4.1 6.3
0 10 1 11.4 5.1
0 10 -1 7.4 5.6
0 10 1 6.6 7.4
0 10 -1 4.9 4.5
0 10 -1 2.5 5.5
1 -10 1 20.9 6.5
-1 -10 -1 18.8 6.5
1 -10 1 25.3 5.8
-1 -10 -1 9.6 6.2
1 -10 1 19.6 7
1 -10 1 12.5 9.8
-1 -10 -1 25.4 6.1
-1 10 -1 18 5.7
1 10 1 22.4 6
1 10 1 17.9 6.8
-1 10 -1 27.7 6.8
1 10 1 13.1 7.3
2 -10 1 12.6 7.4
2 -10 1 8.3 11.8
-2 -10 -1 3.1 6.4
-2 -10 -1 -1.4 7.2
2 -10 1 -8.5 7.1
2 10 1 -8.8 7.9
2 10 1 8.7 7.1
2 10 1 5.7 6.8
-2 10 -1 -3 6.7
-2 10 -1 5.5 5.7
3 -10 1 -0.7 10.8
-3 -10 -1 17.6 8.4
-3 -10 -1 6.7 8.9
3 -10 1 10.7 9
-3 10 -1 13.9 9.8
-3 10 -1 3.4 8.3
-4 -10 -1 0 11.9
-4 -10 -1 29.1 20.9
4 -10 1 3.4 13.5
-4 10 -1 16.3 13.3
-4 10 -1 8.1 12.8
-5 -10 -1 -3.3 15.7
5 -10 1 8.3 19.2
-5 -10 -1 -8.4 19.8
-5 10 -1 20.4 20.3
5 -11 -1 94.19 22.9
-5 -11 1 133.49 23.2
-5 -11 1 77.09 17.7
-5 11 1 54.79 23.1
4 -11 -1 186.78 24.9
-4 -11 1 181.78 21.5
-4 -11 1 215.68 26.2
-4 11 1 222.78 25.9
3 -11 -1 300.17 21.9
-3 -11 1 330.47 23
-3 -11 1 306.37 21.2
3 -11 -1 302.97 25.7
-3 11 1 321.27 22.7
-3 11 1 319.27 24.4
2 -11 -1 463.05 25.1
2 -11 -1 410.46 30.6
-2 -11 1 470.35 25.9
2 -11 -1 464.65 27.6
-2 -11 1 443.96 24.3
2 11 -1 458.65 26.6
2 11 -1 456.55 25.6
-2 11 1 434.96 26
-2 11 1 458.25 26.2
1 -11 -1 233.28 20.2
-1 -11 1 220.18 15.4
1 -11 -1 201.88 17.4
-1 -11 1 200.58 15.9
1 -11 -1 217.88 15
1 -11 -1 226.78 16
1 11 -1 224.88 16.6
-1 11 1 212.18 16.4
-1 11 1 224.08 19.7
1 11 -1 217.58 15.3
-1 11 1 203.88 15.5
1 11 -1 207.28 16.1
1 11 -1 207.38 15.7
0 -11 1 994.3 44.8
0 -11 1 968.7 47
0 -11 -1 1021.2 45.6
0 -11 -1 967.3 47.6
0 11 1 994.1 46.2
0 11 -1 1016 45.1
0 11 1 1005.7 45.7
0 11 1 963.5 47.1
0 11 -1 980.2 45.3
0 11 1 985.1 45.5
1 -11 1 473.05 29.4
1 -11 1 502.45 24.7
-1 -11 -1 478.75 25.8
-1 -11 -1 482.95 26.3
1 -11 1 449.86 25.5
-1 -11 -1 503.85 25.7
1 -11 1 487.65 26.8
-1 11 -1 491.05 25.2
-1 11 -1 472.25 25.1
1 11 1 483.25 25.8
1 11 1 473.65 26.5
1 11 1 484.85 26.7
2 -11 1 391.86 23.3
-2 -11 -1 379.66 22.6
2 -11 1 372.86 28.9
-2 -11 -1 355.16 22.3
-2 -11 -1 379.16 21.5
-2 11 -1 383.76 22.4
-2 11 -1 396.96 22.5
2 11 1 343.17 24.1
2 11 1 380.66 22.8
2 11 1 356.06 23.3
-3 -11 -1 231.78 19.6
-3 -11 -1 241.78 21.3
3 -11 1 245.48 22.9
3 -11 1 225.28 20.6
-3 11 -1 230.88 20.2
-3 11 -1 245.08 20.3
-4 -11 -1 140.39 18
-4 -11 -1 119.49 19.1
4 -11 1 124.69 23.9
-4 11 -1 163.38 19.2
-4 11 -1 118.59 16.6
-5 -11 -1 55.69 23.1
-5 -11 -1 100.39 19.2
5 -11 1 82.39 24.4
-5 11 -1 93.39 24.2
4 -12 -1 58.89 18.2
-4 -12 1 72.59 17.7
-4 -12 1 58.39 13.6
-4 12 1 83.59 18.7
-3 -12 1 11.8 9.1
-3 -12 1 34 11.6
3 -12 -1 25.2 10.1
-3 12 1 9.5 12.3
-3 12 1 12.7 10.9
2 -12 -1 10.7 10.4
2 -12 -1 24.6 17
2 -12 -1 11.5 7.9
-2 -12 1 4.6 8.3
-2 -12 1 13.1 7.4
2 12 -1 -4.4 11.2
2 12 -1 9.2 8.8
-2 12 1 16.9 10.3
-2 12 1 -1.2 8.5
1 -12 -1 82.99 10
1 -12 -1 97.39 10.9
1 -12 -1 84.99 15
-1 -12 1 83.29 10.4
-1 -12 1 77.29 11
1 12 -1 81.79 11.5
-1 12 1 76.09 13.7
1 12 -1 75.89 11.4
-1 12 1 73.09 11
-1 12 1 82.39 10.9
1 12 -1 75.59 10.2
-1 12 1 82.19 10.5
1 12 -1 72.69 11
0 -12 -1 11.3 8.2
0 -12 1 9.4 10.9
0 -12 1 1.3 6.4
0 -12 -1 16.1 10.3
0 12 1 2.7 6.5
0 12 -1 -2.4 6.4
0 12 -1 2.6 7.8
0 12 -1 -1.1 6
0 12 1 10.5 8.2
0 12 1 -9.6 5.9
0 12 1 -13.1 9.2
1 -12 1 226.48 16.9
1 -12 1 246.08 16.5
1 -12 1 218.98 22.6
-1 -12 -1 204.08 18.3
1 -12 1 224.68 18.9
-1 -12 -1 227.38 17.1
1 12 1 226.48 17.4
-1 12 -1 223.18 17.4
1 12 1 212.48 17.3
1 12 1 180.48 18.3
-1 12 -1 205.78 16.4
1 12 1 196.38 19.1
-2 -12 -1 283.87 20
-2 -12 -1 289.27 20.2
2 -12 1 251.87 22.1
-2 -12 -1 287.77 19.8
2 -12 1 310.17 21.1
2 -12 1 254.87 28.8
-2 12 -1 309.57 20.9
-2 12 -1 321.77 20.9
2 12 1 300.57 21.2
-3 -12 -1 15.3 12
3 -12 1 -7.3 13.2
3 -12 1 5.7 10.3
-3 -12 -1 6.3 9.8
-3 12 -1 16.8 11.8
-3 12 -1 7.6 9.5
-4 -12 -1 -4.3 12.9
-4 -12 -1 11.3 16.2
4 -12 1 -6.7 15.3
-4 12 -1 -20.8 14.5
-4 12 -1 40.2 16.1
-4 -13 1 22.2 13.4
-4 -13 1 46.2 18.1
4 -13 -1 54.59 17.7
-4 13 1 45.1 18.1
-3 -13 1 319.67 30.4
3 -13 -1 310.97 25.7
-3 13 1 360.46 26.7
2 -13 -1 377.56 26.8
-2 -13 1 337.17 21.6
-2 -13 1 326.77 22.9
2 -13 -1 315.17 22.3
-2 13 1 326.97 25
-2 13 1 343.47 23.9
1 -13 -1 439.56 31.7
1 -13 -1 479.45 26.8
-1 -13 1 462.05 27.6
-1 -13 1 465.15 25.8
1 -13 -1 484.15 26.6
-1 13 1 455.05 30.6
-1 13 1 483.05 27.3
1 13 -1 471.15 26.6
1 13 -1 428.16 27.6
-1 13 1 476.65 27.7
1 13 -1 478.25 26.8
0 -13 1 406.26 23.3
0 -13 -1 448.56 24
0 -13 1 368.36 26.5
0 -13 -1 373.96 27.1
0 13 1 397.96 24.1
0 13 -1 394.66 23.3
0 13 -1 383.46 23.7
0 13 1 399.76 25.4
0 13 1 389.06 27.4
0 13 1 384.46 23.8
0 13 -1 397.76 24.2
1 -13 1 558.84 28.9
-1 -13 -1 531.45 30.5
1 -13 1 525.65 34.5
1 -13 1 536.75 29.4
-1 -13 -1 521.85 28.9
-1 13 -1 539.15 29.4
-1 13 -1 514.35 28.9
-1 13 -1 547.75 28.9
1 13 1 552.04 30.5
1 13 1 495.55 30.8
1 13 1 528.05 31.1
-2 -13 -1 197.58 18.5
-2 -13 -1 253.87 19.5
2 -13 1 221.88 19.6
-2 -13 -1 214.68 19.7
2 -13 1 237.28 22.8
-2 13 -1 231.48 19.9
2 13 1 203.38 20.1
-2 13 -1 189.68 19.8
3 -13 1 244.98 24.2
3 -13 1 211.18 25.5
-3 -13 -1 187.28 27.4
-3 13 -1 247.88 24.8
-3 13 -1 245.68 22.5
4 -13 1 179.28 23.6
-4 -13 -1 167.68 21
-4 -13 -1 144.19 23.3
-4 13 -1 189.58 31.9
4 -14 -1 7.4 18
-4 -14 1 -9 17.6
-4 -14 1 -12.4 13.5
-4 14 1 10.9 18.1
3 -14 -1 -4.9 11.5
-3 -14 1 -7.9 13.4
-3 -14 1 14.8 12
-3 14 1 12 13.5
-2 -14 1 22.1 10.6
-2 -14 1 24.8 9.3
2 -14 -1 20.3 15.9
2 -14 -1 26.4 10.7
-2 14 1 31.6 11.8
-2 14 1 38.9 13.7
1 -14 -1 44.1 10
1 -14 -1 48.9 11.4
-1 -14 1 53.29 10
-1 -14 1 32.8 11.3
1 -14 -1 89.09 20.9
-1 14 1 49.7 12.8
-1 14 1 55.49 10.7
1 14 -1 33.4 10.9
-1 14 1 55.59 15.2
0 -14 1 30.8 13.4
0 -14 -1 9.2 13.4
0 -14 -1 22.5 9.2
0 -14 1 34.9 9.8
0 14 1 37.4 12.9
0 14 -1 25.3 10.7
0 14 -1 41.9 9
0 14 1 21.4 10.4
0 14 1 26.3 9.7
-1 -14 -1 21.1 10.3
1 -14 1 25.6 10.1
1 -14 1 28.5 9.4
1 -14 1 26.2 14.4
-1 -14 -1 13 12.1
-1 14 -1 21 10.8
-1 14 -1 21 8.6
1 14 1 8.5 13.2
1 14 1 34.1 11.2
2 -14 1 47 14.4
-2 -14 -1 47.4 11.4
2 -14 1 58.19 12.4
-2 -14 -1 76.79 13.2
-2 -14 -1 57.39 12.9
2 14 1 64.79 13
-2 14 -1 50.59 12.8
-2 14 -1 49.99 12.1
-3 -14 -1 19.6 14.2
-3 -14 -1 -3.9 11.2
-3 14 -1 -15.6 13.8
-3 14 -1 -17.1 13.3
4 -14 1 19.3 19.2
-4 -14 -1 19.3 16.2
-4 -14 -1 13.2 20.1
-4 14 -1 13 18
-4 -15 1 181.18 24.2
4 -15 -1 166.08 25.9
-4 -15 1 161.38 20.4
-4 15 1 111.59 24.1
-3 -15 1 122.69 17.4
-3 -15 1 163.98 20.4
-3 15 1 152.58 22
2 -15 -1 260.37 24.4
-2 15 1 275.47 25.1
2 15 -1 305.97 25.7
1 -15 -1 315.07 23.4
1 -15 -1 271.57 22.2
-1 -15 1 318.97 26.6
-1 -15 1 258.77 22.5
1 15 -1 295.47 22.8
-1 15 1 297.07 23.9
0 -15 -1 178.28 19.7
0 -15 1 172.78 20.1
0 -15 1 179.38 18.3
0 -15 1 161.58 17.8
0 -15 -1 119.09 19.4
0 15 1 169.98 17.7
0 15 1 162.28 18.9
0 15 -1 169.38 17.5
1 -15 1 340.27 25.2
-1 -15 -1 347.37 28.6
1 -15 1 382.06 24.6
-1 -15 -1 322.67 24.4
1 15 1 331.77 27.3
-1 15 -1 308.07 26.3
-1 15 -1 373.76 24.8
1 15 1 370.36 26.9
-2 -15 -1 115.89 21.2
-2 -15 -1 141.79 17.5
2 -15 1 184.88 21.6
2 -15 1 137.59 18.1
-2 -15 -1 146.49 20
-2 15 -1 184.78 21.1
-2 15 -1 138.49 17.4
2 15 1 187.98 19.9
2 15 1 184.88 23.4
-3 -15 -1 171.28 21.8
-3 -15 -1 208.18 25.8
3 -15 1 219.58 27.7
-3 15 -1 227.68 26.2
-4 -15 -1 89.29 19.1
4 -15 1 158.28 26.1
-4 15 -1 125.59 25
-3 -16 1 4.7 17.1
-3 -16 1 8.4 14.4
3 -16 -1 12.2 15.9
-3 16 1 28.2 17.9
2 -16 -1 -8.5 13.4
-2 -16 1 16.6 13.4
2 16 -1 5.3 15.2
-2 16 1 24.3 13.8
-1 -16 1 88.99 14.7
1 -16 -1 96.39 15.5
-1 -16 1 117.79 18.8
1 -16 -1 98.19 14.9
1 16 -1 84.89 14.7
-1 16 1 85.79 14.8
0 -16 1 25.8 33.3
0 -16 -1 39.5 12.8
0 -16 1 23.1 12.7
0 -16 1 24.9 11.6
0 16 -1 38 11.3
0 16 1 11.9 11.2
0 16 1 6.7 15.8
-1 -16 -1 13.8 17.3
-1 -16 -1 17.7 18.3
1 -16 1 24.3 12.4
1 -16 1 40.5 12.4
1 16 1 50.39 13.9
1 16 1 31 14.4
-1 16 -1 47.9 13.7
2 -16 1 23.1 15
-2 -16 -1 16.6 16.2
2 -16 1 6.2 22.3
-2 -16 -1 20.3 15.4
2 16 1 4.7 14.9
-2 16 -1 40.6 14.3
2 16 1 17.8 16
-3 -16 -1 -4.1 13.8
-3 -16 -1 -8.5 17.3
3 -16 1 -0.2 17
-3 16 -1 -3.5 16
3 -17 -1 6.6 17.3
-3 -17 1 17.3 18.7
-3 -17 1 -7.6 15.7
-3 17 1 23.4 20
3 17 -1 -11.5 19.9
2 -17 -1 192.18 23.4
-2 -17 1 172.28 20.6
2 17 -1 195.78 22.1
-2 17 1 240.88 29.4
-1 -17 1 407.66 30.1
1 -17 -1 400.26 30.6
-1 -17 1 317.87 36.5
-1 17 1 433.36 31.8
1 17 -1 432.16 30.8
0 -17 1 246.78 27.1
0 -17 -1 225.48 25.1
0 -17 1 264.87 24.6
0 -17 -1 187.38 23
0 17 -1 242.58 25.1
0 17 1 259.17 24.9
0 17 1 224.38 25.2
1 -17 1 276.67 26.6
-1 -17 -1 292.37 27.7
1 -17 1 292.37 28.9
-1 17 -1 325.67 26.3
1 17 1 288.57 28
1 17 1 319.77 31.5
2 -17 1 236.78 29.6
-2 -17 -1 242.08 32.6
-2 -17 -1 209.18 22.3
2 17 1 233.48 24.9
2 17 1 214.88 28.5
-2 17 -1 286.47 27.4
-3 -17 -1 98.09 17.9
-3 -17 -1 110.39 20.6
3 -17 1 96.49 23.1
-3 17 -1 118.59 23.4
2 -18 -1 5.5 18.3
-2 -18 1 -9.7 17.3
2 18 -1 48.7 18.8
-2 18 1 16.1 19.1
1 -18 -1 26 15.9
1 -18 -1 15.6 15
-1 -18 1 22.4 15
-1 18 1 30.7 16.6
1 18 -1 30.9 15.8
0 -18 1 -0.7 15.3
0 -18 -1 -18.2 14
0 -18 1 12.4 15.2
0 -18 -1 6.8 15.6
0 18 -1 -6.5 15
0 18 1 12.6 15.6
1 -18 1 -1.9 15.1
-1 -18 -1 -10.2 14.9
1 -18 1 5.9 16.4
1 18 1 15.2 19.6
1 18 1 -5.1 14.8
-1 18 -1 -3.4 14.1
2 -18 1 -4 18.1
-2 -18 -1 23 17.7
2 18 1 6.6 19.6
2 18 1 27.4 19.4
-2 18 -1 -17.5 17.1
2 -19 -1 159.98 26.3
-2 19 1 189.28 26.4
2 19 -1 153.18 24.3
-1 -19 1 182.18 23.1
1 -19 -1 199.08 25.8
1 -19 -1 199.38 23.5
-1 19 1 234.88 30.4
1 19 -1 185.08 22.8
0 -19 -1 160.58 23.3
0 -19 1 192.58 22.5
0 -19 -1 147.79 20.7
0 -19 1 178.28 23.9
0 19 1 177.58 23.9
0 19 -1 163.98 20.8
1 -19 1 60.39 20.8
-1 -19 -1 60.49 19.4
1 -19 1 37.7 18.4
-1 19 -1 46.5 17.3
1 19 1 42.8 20.5
2 -19 1 173.08 27.9
0 -20 -1 -8.8 19.3
0 -20 -1 -6 22.9
0 -20 1 4.2 17.8
0 -20 1 -2.5 20.4
0 20 -1 21.5 19.3
0 20 1 -31.9 24.7
-6 0 2 113.89 20
-6 0 2 93.99 21.2
5 0 -2 470.25 34.9
-5 0 2 454.45 31.3
-5 0 2 444.06 31.2
-4 0 2 91.79 11.6
4 0 -2 158.28 17.7
-4 0 2 95.79 13.6
4 0 -2 89.79 13.6
-4 0 2 88.99 11.7
-3 0 2 242.58 16
3 0 -2 261.87 15.8
-3 0 2 223.98 15
3 0 -2 240.58 16.3
2 0 -2 320.67 15.9
-2 0 2 325.27 16.1
2 0 -2 324.47 17.1
-2 0 2 330.57 16.6
2 0 -2 312.97 16.2
1 0 -2 252.57 12.2
-1 0 2 237.98 12.1
1 0 -2 264.87 12.6
-1 0 2 276.57 12.5
-1 0 2 271.17 12.5
1 0 -2 292.47 12.4
0 0 2 2605.34 99.59
0 0 -2 2662.53 99.89
0 0 2 2051.29 99.59
0 0 2 2399.26 100.19
1 0 2 9999 399.46
-1 0 -2 9843.62 399.46
1 0 2 9634.94 399.86
-1 0 -2 9523.05 399.76
-2 0 -2 1184.18 48.6
2 0 2 1095.59 49.2
-2 0 -2 1042 47.3
2 0 2 1133.59 48.5
-3 0 -2 824.22 37.9
-3 0 -2 923.11 39.9
3 0 2 861.81 39.8
3 0 2 817.42 40.9
-3 0 -2 832.22 40.7
-4 0 -2 281.67 20.7
4 0 2 260.87 21.6
4 0 2 243.48 22.8
-4 0 -2 270.67 17.5
-4 0 -2 244.88 22.6
5 0 2 15 14.6
-5 0 -2 27.9 11.2
-5 0 -2 52.59 25.7
-6 -1 2 1.9 16.1
-6 -1 2 42.9 19.6
-6 1 2 11.8 18.7
-6 1 2 65.19 21
-5 -1 2 192.38 22.3
5 -1 -2 129.09 20.8
5 -1 -2 138.99 19.9
-5 -1 2 152.28 17.3
-5 1 2 114.69 18.7
-5 1 2 155.48 16.8
-4 -1 2 117.69 15.4
-4 -1 2 113.29 14.8
-4 -1 2 126.39 15.1
4 1 -2 135.19 17.3
-4 1 2 182.08 17.7
-3 -1 2 29 6.9
3 1 -2 38.5 7.6
2 -1 -2 404.36 20.2
-2 -1 2 408.66 20.7
2 -1 -2 428.96 20.6
2 -1 -2 417.06 20.2
-2 -1 2 414.86 19.8
2 1 -2 414.16 19.7
-2 1 2 414.76 20
-2 1 2 435.36 20.1
2 1 -2 418.56 20.9
1 -1 -2 314.77 13.9
-1 -1 2 291.87 13.7
-1 -1 2 317.47 14.5
1 -1 -2 358.66 14.6
1 -1 -2 282.27 14
1 1 -2 288.07 13.6
-1 1 2 292.37 14
-1 1 2 312.17 14.6
-1 1 2 298.27 13.7
0 -1 -2 146.19 7.2
0 -1 -2 169.68 7.8
0 -1 2 174.78 7.3
0 1 2 136.09 7.2
0 1 2 149.39 7.2
0 1 2 153.08 7.8
1 -1 2 514.15 23.4
-1 -1 -2 543.95 23.6
-1 -1 -2 539.75 23.1
1 -1 2 516.35 23
1 1 2 544.85 23.1
-1 1 -2 484.85 23.2
-1 1 -2 503.85 22.9
1 1 2 524.05 22.4
2 -1 2 203.08 12.6
-2 -1 -2 221.68 11.9
-2 -1 -2 173.48 11.2
2 -1 2 206.88 12
2 1 2 206.38 13.1
-2 1 -2 138.59 16.3
2 1 2 215.88 12.3
-2 1 -2 211.48 11.7
-2 1 -2 185.68 10.4
-3 -1 -2 156.58 15.1
3 1 2 162.98 14.8
-4 -1 -2 12.4 11.5
-4 -1 -2 31.1 8.3
-4 -1 -2 47.5 9.3
4 -1 2 26.4 11.1
4 -1 2 16.9 9.8
-4 1 -2 31 9.1
4 1 2 38.1 10.7
-4 1 -2 14.1 10.8
-4 1 -2 15.8 7
4 1 2 48.7 10.5
5 -1 2 4.8 14.5
5 -1 2 14.5 24.7
-5 -1 -2 2.1 10.2
-5 1 -2 -11.4 15.1
-5 1 -2 -3.9 10.1
5 1 2 18.9 17.8
-6 -2 2 169.68 21.8
-6 -2 2 129.79 23.2
6 -2 -2 127.09 28
-6 2 2 200.08 25.1
-6 2 2 107.89 22.9
-5 -2 2 119.19 15.9
5 -2 -2 63.29 20.8
5 -2 -2 118.39 18
-5 -2 2 94.69 16.3
-5 2 2 117.29 17.3
-5 2 2 96.29 15.5
-4 -2 2 427.66 24.2
-4 -2 2 425.26 25.4
4 -2 -2 438.06 26.6
-4 -2 2 422.66 28.1
4 -2 -2 402.16 27.5
4 -2 -2 377.06 26.3
-4 2 2 369.66 24.1
-4 2 2 414.26 25.9
-3 -2 2 898.71 39.7
-3 -2 2 802.42 39.4
-3 -2 2 914.61 41.5
3 -2 -2 850.51 40.5
3 -2 -2 871.81 40.5
3 -2 -2 854.81 41.1
-3 2 2 865.21 39.9
3 2 -2 871.61 40.1
-3 2 2 868.61 40.1
-2 -2 2 477.25 23.7
-2 -2 2 520.05 24.9
2 -2 -2 496.75 23.8
2 -2 -2 532.55 24.5
-2 -2 2 511.85 23.5
2 2 -2 519.95 23.6
-2 2 2 516.85 23.5
-2 2 2 481.25 23.6
-1 -2 2 957.2 39.7
1 -2 -2 1018.4 41
-1 -2 2 917.41 40.3
1 -2 -2 926.51 40.2
1 -2 -2 917.01 39.7
1 2 -2 941.01 39.6
-1 2 2 886.41 40.3
-1 2 2 919.51 39.6
-1 2 2 1016.2 41.2
0 -2 -2 4839.82 211.18
0 -2 2 5462.55 210.78
0 -2 -2 5048.59 211.28
0 -2 -2 5312.97 211.88
0 2 2 4978.4 211.18
0 2 2 5166.18 211.28
0 2 2 5232.48 211.88
-1 -2 -2 266.77 13.2
-1 -2 -2 276.17 13.8
1 -2 2 288.87 13.1
-1 -2 -2 277.67 12.8
-1 2 -2 276.37 13.4
1 2 2 279.07 13.2
1 2 2 260.97 12.7
1 2 2 275.57 13.4
1 2 2 271.07 14
-1 2 -2 275.97 13
2 -2 2 876.81 38.3
2 -2 2 865.91 37.5
-2 -2 -2 784.72 36.3
-2 2 -2 830.52 37.9
2 2 2 813.32 38.7
2 2 2 860.91 37.6
2 2 2 828.92 36.5
-2 2 -2 859.91 37.3
3 -2 2 1375.66 63.69
-3 -2 -2 1383.66 63.79
-3 -2 -2 1445.06 62.69
3 -2 2 1490.45 63.09
-3 -2 -2 1396.46 61.29
3 2 2 1345.17 64.49
-3 2 -2 1446.06 62.69
-3 2 -2 1460.55 60.59
4 -2 2 164.38 17.9
4 -2 2 135.79 15
-4 -2 -2 130.09 13.9
-4 -2 -2 137.19 15.1
-4 2 -2 155.18 13.6
-4 2 -2 99.89 13.7
-4 2 -2 128.29 13.8
4 2 2 123.69 15.5
4 2 2 130.39 16.9
-5 -2 -2 113.59 14.7
-5 -2 -2 87.79 17.6
5 -2 2 78.79 17.9
5 2 2 88.29 19.5
-5 2 -2 135.69 13.9
-5 2 -2 126.19 20.4
-6 -3 2 -16.2 21
-6 -3 2 -7.8 16.1
6 -3 -2 -4.2 25
-6 3 2 1.3 20.4
-6 3 2 43.1 20.2
5 -3 -2 -7.8 20.2
-5 -3 2 -16.3 12.7
5 -3 -2 1.7 13.8
-5 -3 2 -9 11.8
-5 3 2 -30.9 12.3
4 -3 -2 12.8 10.5
-4 -3 2 32.8 11.6
4 -3 -2 45.5 13.2
4 -3 -2 28.7 8.5
-4 -3 2 49.5 8.4
-4 3 2 26.4 8.9
-4 3 2 27.6 10.3
3 -3 -2 2.4 5.1
3 -3 -2 12.6 7.4
3 -3 -2 1.2 6.2
-3 -3 2 10 6.9
-3 3 2 6.1 5.5
-3 3 2 -1.5 5.3
-2 -3 2 31.4 5.6
2 -3 -2 25 5.1
-2 -3 2 25.2 4.8
2 -3 -2 29.8 4.6
2 -3 -2 27.3 5.9
-2 -3 2 22 3.9
2 3 -2 23.9 6.6
-2 3 2 34.5 4.8
-2 3 2 28.6 4.5
-2 3 2 29.4 5.1
1 -3 -2 206.18 10.1
1 -3 -2 209.38 10.9
-1 -3 2 198.48 10.9
-1 -3 2 221.98 10.1
1 -3 -2 232.98 11.9
1 3 -2 207.58 10.7
1 3 -2 216.08 10
-1 3 2 210.58 10
-1 3 2 194.08 10.8
0 -3 2 516.55 20.9
0 -3 -2 497.35 21.6
0 -3 -2 451.85 21.4
0 -3 -2 476.85 22.1
0 -3 2 477.85 20.9
0 3 2 474.35 21.4
0 3 -2 473.55 20.8
0 3 -2 506.25 20.9
0 3 2 502.95 22.3
0 3 2 493.85 21.6
-1 -3 -2 259.67 12.8
-1 -3 -2 239.68 12.6
1 -3 2 259.97 12.6
1 -3 2 273.17 13.4
-1 -3 -2 238.28 13.5
1 3 2 270.27 13.2
1 3 2 254.17 12.4
-1 3 -2 266.57 13
-1 3 -2 242.88 12.4
1 3 2 270.57 12.9
2 -3 2 3.8 4
-2 -3 -2 3 5.2
-2 -3 -2 2 3.2
-2 -3 -2 6.4 3.1
2 -3 2 -4.8 3.9
2 3 2 2.1 3.8
-2 3 -2 7.1 4
2 3 2 4.8 3.5
2 3 2 -0.7 5.4
2 3 2 9 3.6
-2 3 -2 1.8 3.4
3 -3 2 18.6 7.2
-3 -3 -2 18.1 8.9
3 -3 2 13.1 6.2
-3 3 -2 15 5.5
3 3 2 35.5 9.3
-3 3 -2 7.2 6.7
3 3 2 35.3 7.1
-4 -3 -2 23.3 8.7
-4 -3 -2 27.9 8.7
4 -3 2 11.3 9.1
4 -3 2 23.8 10.4
-4 3 -2 19.4 11.7
4 3 2 30 10.9
-4 3 -2 35.1 7.2
4 3 2 23.2 11.5
-4 3 -2 27.3 9.1
-5 -3 -2 -3.2 11.2
-5 -3 -2 0.9 13.3
5 -3 2 8 15.2
-5 3 -2 2.5 10.6
5 3 2 10.5 13.1
-5 3 -2 -11.5 15.7
5 -4 -2 82.79 23.2
-5 -4 2 69.99 13.3
-5 -4 2 88.19 26.3
5 -4 -2 82.29 16.6
-5 4 2 83.29 17.3
-4 -4 2 403.66 23.9
4 -4 -2 393.86 26.9
4 -4 -2 389.36 25.2
4 -4 -2 349.37 29.8
-4 -4 2 401.86 23.8
-4 -4 2 393.36 28.8
-4 4 2 418.26 24.7
-4 4 2 364.66 25.5
-3 -4 2 186.48 13.1
3 -4 -2 188.38 14.8
-3 -4 2 175.88 16.5
-3 -4 2 194.18 13.9
3 -4 -2 192.88 17.2
3 -4 -2 188.08 13.8
3 4 -2 185.98 13.7
-3 4 2 207.18 14.5
-3 4 2 184.58 13.8
-2 -4 2 2261.07 97.09
-2 -4 2 2368.16 96.69
-2 -4 2 2377.96 98.69
2 -4 -2 2285.87 97.39
2 -4 -2 2200.58 99.59
2 -4 -2 2252.97 96.79
-2 4 2 2318.37 96.69
2 4 -2 2335.17 96.59
-2 4 2 2314.07 97.29
-2 4 2 2301.67 98.49
1 -4 -2 1815.52 78.49
1 -4 -2 1878.61 79.49
-1 -4 2 1837.02 78.99
-1 -4 2 2086.19 78.69
1 -4 -2 1877.11 80.19
-1 4 2 1728.83 78.39
1 4 -2 1936.61 78.39
-1 4 2 1941.51 79.09
1 4 -2 1856.01 78.99
-1 4 2 1904.11 79.49
0 -4 -2 1769.22 75.59
0 -4 2 1912.21 74.49
0 -4 2 1923.11 74.29
0 4 -2 1755.82 74.19
0 4 2 1764.62 74.69
0 4 2 1809.02 74.99
0 4 -2 1808.42 74.19
0 4 2 1551.84 75.99
1 -4 2 1552.84 65.09
-1 -4 -2 1555.24 65.39
-1 -4 -2 1600.04 65.59
-1 -4 -2 1471.25 64.99
1 -4 2 1599.14 65.79
-1 -4 -2 1558.54 66.19
-1 4 -2 1519.85 64.99
1 4 2 1553.34 65.49
1 4 2 1404.06 66.59
1 4 2 1574.74 65.09
-1 4 -2 1605.24 65.59
-2 -4 -2 417.36 21.3
-2 -4 -2 413.36 20.7
2 -4 2 454.15 22.2
-2 -4 -2 436.26 23.1
2 -4 2 439.86 21.9
2 4 2 454.05 21.6
2 4 2 458.75 21.1
-2 4 -2 438.66 21.9
-2 4 -2 393.46 21.1
3 -4 2 230.28 16
-3 -4 -2 186.58 17.8
-3 -4 -2 195.88 13.5
-3 -4 -2 204.28 14.6
3 -4 2 218.48 16.1
3 4 2 223.48 15
-3 4 -2 203.58 15.9
3 4 2 188.38 15.4
3 4 2 207.18 13.8
-3 4 -2 199.18 14.1
4 -4 2 235.88 30.7
-4 -4 -2 277.57 21.4
4 -4 2 321.97 24
4 -4 2 241.78 23.9
-4 -4 -2 309.77 20.4
-4 4 -2 269.37 21.3
4 4 2 300.27 20.4
-4 4 -2 305.87 18.4
-5 -4 -2 158.68 20.7
5 -4 2 180.68 22.2
-5 -4 -2 145.09 16.8
-5 4 -2 169.28 20.5
5 4 2 168.08 21.8
-5 -5 2 -1.1 15.5
-5 -5 2 1.4 12.2
5 -5 -2 28.2 15.2
-5 5 2 11.6 14.5
-4 -5 2 28.8 8.4
-4 -5 2 23.3 8.8
4 -5 -2 4.3 14.4
4 -5 -2 6 8.8
-4 -5 2 17.9 13.5
-4 5 2 13.3 9.2
-4 5 2 10.5 10.4
3 -5 -2 25.5 6
-3 -5 2 32.3 9.5
-3 -5 2 16 6.3
3 -5 -2 28.8 8.1
-3 -5 2 10 5.6
3 -5 -2 10.9 9.8
-3 5 2 29.6 6.6
-3 5 2 16.9 6.2
3 5 -2 16.6 6.9
2 -5 -2 1110.79 47.5
2 -5 -2 1081.19 48.7
-2 -5 2 1006.5 46.9
2 -5 -2 1054.79 46.5
-2 -5 2 1076.79 46.4
-2 5 2 1048.5 47.2
-2 5 2 1087.59 49.1
2 5 -2 1084.79 47
-2 5 2 1049.7 46.3
2 5 -2 1049.7 46.2
-1 -5 2 217.68 10.6
1 -5 -2 202.68 12.9
1 -5 -2 195.48 11.5
1 -5 -2 193.48 10.5
-1 -5 2 193.28 10.9
1 5 -2 215.08 10.5
-1 5 2 193.58 11.2
-1 5 2 215.78 13.1
1 5 -2 197.98 11
-1 5 2 202.78 11.2
0 -5 -2 93.29 7.4
0 -5 2 99.49 6.4
0 -5 2 94.69 7.3
0 -5 -2 90.69 7
0 -5 2 92.39 6.2
0 5 -2 83.39 6
0 5 2 97.39 6.9
0 5 2 87.39 6.5
0 5 2 99.89 8.2
0 5 -2 86.89 5.8
0 5 2 91.39 7.2
0 5 -2 103.69 5.8
-1 -5 -2 216.28 11.5
-1 -5 -2 221.58 11.8
1 -5 2 208.88 12
1 -5 2 238.08 10.9
-1 -5 -2 227.08 12.1
1 -5 2 210.48 11.6
1 5 2 230.68 12.8
-1 5 -2 210.68 11.7
1 5 2 218.18 12.2
1 5 2 223.28 12
-1 5 -2 210.78 12
-2 -5 -2 5.8 4.4
-2 -5 -2 6.7 4.1
2 -5 2 1.2 3.6
-2 -5 -2 3.2 5.4
2 -5 2 2.4 4.7
2 5 2 4.6 4.2
-2 5 -2 -2.7 3.8
-2 5 -2 2.9 4.4
2 5 2 1.8 3.9
2 5 2 12 4.5
-3 -5 -2 46.9 10.7
3 -5 2 44.2 8.6
3 -5 2 32.5 8.5
-3 -5 -2 37.8 7.1
-3 -5 -2 28.2 6.7
-3 5 -2 43.2 7.4
3 5 2 59.19 9.2
3 5 2 44.5 7.2
-3 5 -2 44.2 9.4
-4 -5 -2 -2.4 9
-4 -5 -2 1 8.8
4 -5 2 16.4 18.2
4 -5 2 -1.3 11.4
4 -5 2 -5.4 9.6
-4 5 -2 16.7 8.1
4 5 2 -5.9 7.7
5 -5 2 1 16.1
-5 -5 -2 5.3 13.7
-5 -5 -2 9 14.5
-5 5 -2 25.5 24.4
-5 5 -2 -0.8 11.5
5 -6 -2 151.98 20.6
-5 -6 2 111.89 18
-5 -6 2 104.99 15.8
-5 6 2 93.19 17.9
-4 -6 2 496.65 27.2
-4 -6 2 465.85 29.2
4 -6 -2 479.65 35.7
4 -6 -2 479.15 28.7
-4 6 2 481.65 30.2
-4 6 2 475.55 29.3
-3 -6 2 654.33 32.7
3 -6 -2 674.03 36
-3 -6 2 643.94 35.4
-3 -6 2 670.23 31.6
3 -6 -2 642.14 33.2
3 -6 -2 622.94 31.7
-3 6 2 701.93 33.1
-3 6 2 671.53 32
3 6 -2 616.94 31.8
-2 -6 2 1132.49 51.49
2 -6 -2 1134.59 51.19
2 -6 -2 1237.58 54.09
-2 -6 2 1230.58 51.19
2 -6 -2 1174.58 52.29
2 6 -2 1184.18 50.99
-2 6 2 1185.08 53.99
-2 6 2 1096.29 51.09
2 6 -2 1192.08 51.89
-2 6 2 1190.98 52.19
-1 -6 2 2119.89 92.19
-1 -6 2 2363.66 92.09
1 -6 -2 2142.89 91.99
-1 6 2 2210.38 92.29
1 6 -2 2139.99 92.29
-1 6 2 2194.18 94.29
1 6 -2 2212.98 91.79
0 -6 -2 15.7 3.6
0 -6 2 14.8 3.8
0 -6 2 24.7 4.6
0 -6 -2 17.1 4.4
0 6 2 27.2 4.3
0 6 -2 13.2 3.2
0 6 -2 16.7 3
0 6 2 9.8 3.9
0 6 2 11.2 3.6
0 6 -2 11.8 2.9
0 6 2 9.6 3.3
-1 -6 -2 1161.58 51.39
-1 -6 -2 1195.28 51.79
1 -6 2 1265.47 50.49
-1 -6 -2 1166.88 51.59
1 -6 2 1186.98 51.39
1 -6 2 1242.08 52.09
1 6 2 1217.18 52.09
-1 6 -2 1169.88 51.19
-1 6 -2 1253.37 50.39
1 6 2 1026.4 53.09
2 -6 2 418.56 21.6
-2 -6 -2 403.16 21.3
-2 -6 -2 423.86 21.8
2 -6 2 419.36 22.1
-2 -6 -2 420.46 23.8
-2 6 -2 419.26 21.8
2 6 2 438.86 21.2
2 6 2 434.56 21.7
-2 6 -2 424.26 21.4
2 6 2 418.86 21.8
-3 -6 -2 156.48 13.9
3 -6 2 155.18 20.4
-3 -6 -2 151.38 13.7
-3 -6 -2 151.28 17.7
3 -6 2 150.98 14.7
-3 6 -2 122.09 14.6
-3 6 -2 136.49 13.7
3 6 2 156.48 12.5
3 6 2 169.38 14.7
3 6 2 118.99 14.5
-4 -6 -2 119.89 14.9
-4 -6 -2 157.38 17.2
4 -6 2 135.09 16.1
4 -6 2 166.38 18.3
-4 6 -2 145.89 15.9
4 6 2 136.79 16
-5 -6 -2 320.97 29.7
5 -6 2 279.87 33.3
-5 -6 -2 347.97 30.1
-5 6 -2 324.97 24.9
-5 6 -2 364.66 33.5
5 -7 -2 8.6 26
-5 -7 2 16.5 16.5
-5 -7 2 28.3 13.6
-5 7 2 29.6 17.6
-4 -7 2 19.5 10.6
4 -7 -2 8.8 16.4
4 -7 -2 -5.9 8.7
-4 -7 2 10.2 8.9
-4 7 2 -1.2 10.9
-4 7 2 14.9 9.8
3 -7 -2 40.7 8.3
3 -7 -2 36.2 9.6
-3 -7 2 64.19 12.7
-3 -7 2 41 7.7
-3 -7 2 54.89 8.9
3 -7 -2 38 12.8
3 7 -2 46.5 8.3
-3 7 2 51.49 8.9
2 -7 -2 10.7 5.5
2 -7 -2 5.8 4.4
-2 -7 2 8.8 5
-2 -7 2 5.9 4
2 -7 -2 0 7.5
-2 7 2 -0.9 3.8
-2 7 2 3.4 4.5
2 7 -2 1.6 4.5
2 7 -2 3.7 5.7
-2 7 2 10.9 6.7
-2 7 2 8.4 5.3
1 -7 -2 113.49 9.9
-1 -7 2 116.19 8.9
1 -7 -2 117.69 11.5
1 -7 -2 102.19 8.1
-1 -7 2 130.19 8.3
-1 7 2 107.99 12.1
1 7 -2 106.39 9
1 7 -2 126.99 8.2
-1 7 2 118.29 9.8
-1 7 2 126.49 9.6
0 -7 -2 0.2 3.3
0 -7 2 -0.7 2.6
0 -7 2 4.1 4.4
0 -7 -2 5.2 4.4
0 7 2 2.9 4.1
0 7 2 3.8 4.9
0 7 2 5 4.1
0 7 -2 -3.7 3.1
0 7 -2 2.5 2.7
0 7 -2 2 3.2
1 -7 2 23.1 5.4
1 -7 2 22.6 4.8
1 -7 2 33 5
-1 -7 -2 33.2 5.5
-1 -7 -2 26.6 4.9
1 -7 2 31.7 7
-1 -7 -2 39 6.1
-1 7 -2 31.8 5
1 7 2 30.2 5.6
1 7 2 33.3 5.5
1 7 2 33 5.4
-2 -7 -2 106.59 10.3
-2 -7 -2 100.99 10.4
2 -7 2 101.29 12.1
-2 -7 -2 122.29 9.8
-2 -7 -2 112.79 14.2
2 -7 2 108.39 10.7
2 7 2 120.79 11.4
-2 7 -2 104.39 10.2
2 7 2 109.59 11
-2 7 -2 116.09 9
-2 7 -2 103.89 10.8
2 7 2 123.99 10.4
3 -7 2 -3.3 12.1
3 -7 2 8.8 7.7
-3 -7 -2 8.1 7.5
-3 -7 -2 5.9 10.8
3 -7 2 3.1 7.7
-3 -7 -2 2.4 6
-3 7 -2 1.1 7.4
-3 7 -2 17.2 6.4
3 7 2 -0.3 8.2
-3 7 -2 3.2 6.3
3 7 2 -2.3 6.1
3 7 2 -1.6 8.2
4 -7 2 1.2 10.8
4 -7 2 -3.8 12.7
-4 -7 -2 1.4 10.4
-4 -7 -2 -2.6 9.6
-4 7 -2 7.6 9.9
-4 7 -2 22.3 9.5
-5 -7 -2 7.1 15.7
-5 -7 -2 -0.6 16.3
5 -7 2 16.5 17.6
-5 7 -2 10.2 11.9
-5 7 -2 19.6 17.7
5 -8 -2 87.69 20.7
-5 -8 2 64.39 14.6
-5 -8 2 95.29 19.5
-5 8 2 77.29 19.8
-4 -8 2 185.78 20.4
-4 -8 2 133.79 14.6
4 -8 -2 156.28 18.2
-4 8 2 180.58 19.9
-4 8 2 131.29 15.9
-3 -8 2 206.28 16.9
-3 -8 2 201.98 14.8
-3 -8 2 192.78 22.5
3 -8 -2 202.58 19
3 -8 -2 250.97 23.9
3 -8 -2 212.48 16.4
3 8 -2 218.88 17.2
-3 8 2 237.08 17.6
-3 8 2 226.78 18.8
-3 8 2 229.48 16.7
-2 -8 2 592.34 27.6
2 -8 -2 594.74 31.5
2 -8 -2 551.14 31.7
2 -8 -2 587.94 28.1
-2 -8 2 553.34 28.3
2 8 -2 589.04 29
-2 8 2 579.24 31.9
-2 8 2 560.34 28.8
-2 8 2 548.45 27.4
-2 8 2 609.64 28.5
-1 -8 2 596.04 28.8
1 -8 -2 624.64 31.7
1 -8 -2 601.44 29
-1 -8 2 673.23 29
-1 -8 2 589.74 29.1
1 -8 -2 602.14 30.4
-1 8 2 651.53 29.6
1 8 -2 621.24 29.3
-1 8 2 639.14 32.1
-1 8 2 633.14 30.2
1 8 -2 667.03 28.9
0 -8 -2 1667.23 70.79
0 -8 -2 1560.14 71.69
0 -8 2 1682.23 70.09
0 -8 2 1609.24 71.39
0 8 2 1649.54 70.69
0 8 -2 1698.63 70.19
0 8 2 1635.24 71.49
0 8 2 1632.74 70.79
0 8 -2 1611.74 70.29
0 8 -2 1725.03 70.09
0 8 2 1652.03 72.29
-1 -8 -2 1163.08 58.09
-1 -8 -2 1261.57 56.39
1 -8 2 1373.56 55.49
-1 -8 -2 1298.57 56.79
1 -8 2 1259.77 56.99
1 -8 2 1284.87 56.49
1 -8 2 1296.77 58.49
1 8 2 1305.77 56.59
1 8 2 1281.37 56.89
-1 8 -2 1379.16 55.49
-1 8 -2 1307.17 56.39
1 8 2 1302.47 57.39
2 -8 2 792.32 40.5
-2 -8 -2 810.22 40.2
-2 -8 -2 774.92 37
-2 -8 -2 789.72 37.4
2 -8 2 811.52 38
2 -8 2 797.22 37.6
-2 -8 -2 754.82 38.1
2 8 2 797.62 37
2 8 2 794.62 37.9
-2 8 -2 831.82 35.6
-2 8 -2 778.82 36.9
2 8 2 811.12 37.6
-2 8 -2 773.12 37.5
3 -8 2 299.17 21.9
3 -8 2 322.07 21.9
-3 -8 -2 311.87 19.9
-3 -8 -2 247.68 25.3
-3 -8 -2 295.47 20.5
3 -8 2 307.27 27.4
-3 8 -2 292.67 19.5
-3 8 -2 341.37 18.3
3 8 2 312.47 21.6
3 8 2 320.07 19
-3 8 -2 298.57 21
3 8 2 305.77 21.9
-4 -8 -2 369.16 25.7
-4 -8 -2 366.66 25.6
4 -8 2 378.86 43.5
4 -8 2 324.97 27.4
-4 8 -2 350.76 26.1
5 -8 2 57.79 22.2
-5 -8 -2 107.29 19.4
-5 -8 -2 56.19 18.8
-5 8 -2 100.39 20.8
-5 -9 2 30.3 18.7
-5 -9 2 13.8 14.6
5 -9 -2 57.19 18.1
-5 9 2 23.2 18.3
4 -9 -2 25.4 12
-4 -9 2 18.6 10
-4 -9 2 19.3 12.4
-4 9 2 14.2 15.2
-4 9 2 12.8 11.4
3 -9 -2 -7.7 9.4
-3 -9 2 -1.2 6.7
-3 -9 2 6.6 13.2
3 -9 -2 -2.7 7
3 -9 -2 12.4 13.7
-3 -9 2 17.7 8.2
3 9 -2 -6.1 10.9
-3 9 2 -0.2 7.8
-3 9 2 -5.6 6.9
3 9 -2 -4.6 8.2
-3 9 2 14.6 9.7
2 -9 -2 11.4 5.6
-2 -9 2 5.4 6.2
2 -9 -2 2.3 10.2
2 -9 -2 17 7.5
-2 -9 2 13.2 5.6
-2 9 2 11.4 8
-2 9 2 15.1 6.8
2 9 -2 4 6.9
2 9 -2 7.7 6.1
-2 9 2 18.4 9.4
-1 -9 2 18.9 5.4
1 -9 -2 6.4 4.2
1 -9 -2 9.6 8
1 -9 -2 8.2 6.3
-1 -9 2 -4.1 4.5
1 -9 -2 1.7 4.7
-1 -9 2 12.6 4.4
1 9 -2 10.9 4.5
-1 9 2 3.7 5.1
-1 9 2 -0.2 6.6
1 9 -2 8.8 5.6
-1 9 2 -1.9 5.7
0 -9 -2 11.4 6.5
0 -9 -2 21.9 5.4
0 -9 2 24.8 5
0 -9 2 22.5 6.5
0 9 -2 15 4.3
0 9 2 7.9 5.7
0 9 2 15.1 4.6
0 9 2 8.5 6.6
0 9 -2 7.6 5.1
0 9 2 5.5 5
1 -9 2 198.08 13.8
-1 -9 -2 197.98 13.8
1 -9 2 188.48 17.1
-1 -9 -2 209.68 14.4
1 -9 2 215.28 12.8
-1 -9 -2 222.78 14
1 -9 2 215.98 14.1
1 9 2 201.48 14.5
1 9 2 213.08 15
-1 9 -2 207.18 13.3
1 9 2 230.18 16.5
-2 -9 -2 318.97 18.9
2 -9 2 303.47 23.6
2 -9 2 286.77 18.7
2 -9 2 321.57 18.9
-2 -9 -2 314.37 18
-2 -9 -2 274.37 22.6
-2 -9 -2 314.77 18.3
-2 9 -2 283.17 18.8
-2 9 -2 299.17 17.1
2 9 2 282.07 19.4
2 9 2 306.17 19.3
-2 9 -2 284.57 17.5
2 9 2 291.37 18.9
3 -9 2 105.99 13.4
-3 -9 -2 94.09 15.5
3 -9 2 103.29 12.5
-3 -9 -2 110.09 12.2
3 -9 2 77.29 16
-3 -9 -2 98.89 11.9
-3 9 -2 104.39 11.5
3 9 2 88.89 12.9
3 9 2 102.29 13.7
-3 9 -2 105.59 10.5
3 9 2 82.99 13.6
-3 9 -2 88.69 13
-4 -9 -2 15.2 12.5
-4 -9 -2 1.3 16.4
4 -9 2 6.5 12.5
-4 9 -2 9.7 12.3
-5 -9 -2 -3.3 16.2
5 -9 2 6.4 19.4
-5 -9 -2 20.3 19.9
-5 9 -2 42 20
-5 -10 2 175.28 20.5
-5 -10 2 228.78 25.2
5 -10 -2 174.98 24.9
-5 10 2 200.18 25.6
-4 -10 2 337.77 27.4
4 -10 -2 343.47 25.7
-4 -10 2 271.07 25.1
-4 10 2 333.17 27.8
-3 -10 2 180.08 14.9
-3 -10 2 148.99 17.3
3 -10 -2 153.58 17.8
3 -10 -2 146.79 15.9
-3 10 2 138.19 16.7
-3 10 2 156.18 15.6
-3 10 2 163.48 15.9
2 -10 -2 323.97 22.2
-2 -10 2 345.17 20.4
-2 -10 2 323.07 19.4
2 -10 -2 307.87 25.2
2 -10 -2 322.87 19
-2 10 2 305.87 23.9
-2 10 2 349.37 21.5
2 10 -2 344.07 19.5
2 10 -2 325.17 21.5
-2 10 2 326.77 21.2
-1 -10 2 223.08 14.6
1 -10 -2 227.28 14.8
1 -10 -2 211.78 16.7
-1 -10 2 214.28 14.3
1 -10 -2 219.88 14.2
1 -10 -2 210.58 18.2
-1 10 2 183.48 14.7
1 10 -2 214.18 15.4
-1 10 2 202.38 18.1
1 10 -2 200.58 15.8
1 10 -2 223.18 13.9
-1 10 2 200.58 18.7
0 -10 2 519.45 28.5
0 -10 -2 552.14 27.2
0 -10 -2 515.75 28.7
0 -10 2 556.54 26.4
0 10 2 543.65 32
0 10 2 558.94 28.1
0 10 -2 554.64 26.6
0 10 -2 551.04 26.6
0 10 -2 522.75 26.9
0 10 2 554.04 29
1 -10 2 977.5 46.5
-1 -10 -2 1012.5 46.4
1 -10 2 1045.9 45
1 -10 2 1013.4 46.4
1 -10 2 1016.5 49.2
-1 -10 -2 990.4 46.5
-1 -10 -2 987.6 46.1
1 10 2 1029.8 46.6
1 10 2 1024.7 47.4
-1 10 -2 1007.1 45.5
-1 10 -2 1044.8 45.1
1 10 2 972.5 46.3
2 -10 2 716.33 34.9
-2 -10 -2 661.83 38.3
2 -10 2 693.73 34.8
-2 -10 -2 654.13 33.8
2 -10 2 657.93 38.6
-2 -10 -2 686.93 33.9
-2 -10 -2 680.33 33.3
-2 10 -2 735.03 32.5
-2 10 -2 685.03 33.8
2 10 2 695.43 34.7
2 10 2 646.24 34.8
2 10 2 719.93 35
3 -10 2 289.77 23.2
-3 -10 -2 270.37 21
3 -10 2 286.37 21.2
-3 -10 -2 248.58 19.4
-3 10 -2 300.27 21.3
-3 10 -2 257.97 19.1
-4 -10 -2 189.88 24.1
-4 -10 -2 222.98 25.6
-4 10 -2 196.48 22.8
-4 10 -2 231.28 24.8
-5 -10 -2 49.1 22.9
-5 -10 -2 90.59 19
5 -10 2 80.29 22.2
-5 10 -2 80.89 23.8
5 -11 -2 28.8 20.8
-5 -11 2 28.9 19.9
-5 -11 2 1.1 14.7
-5 11 2 -11.6 20.8
-4 -11 2 -4.3 11.8
4 -11 -2 4.3 12
-4 -11 2 7 13.5
-4 11 2 20.9 19.2
-3 -11 2 11.1 10.9
3 -11 -2 4.4 8.8
-3 -11 2 12.9 7.6
-3 11 2 -0.3 11.7
-3 11 2 1.8 10.7
-2 -11 2 24.1 8.1
2 -11 -2 30.1 7.9
2 -11 -2 19.5 10.1
-2 -11 2 16 6.4
2 -11 -2 14.2 12.3
-2 11 2 17.5 9.7
2 11 -2 26.2 9.7
-2 11 2 40.5 9.3
2 11 -2 27.6 8.8
-2 11 2 5.7 11.2
-1 -11 2 51.09 9
1 -11 -2 40.7 6.6
-1 -11 2 39.9 7.6
1 -11 -2 53.89 8.6
1 -11 -2 38 11.8
-1 11 2 39.7 8.1
-1 11 2 47.4 8.5
1 11 -2 37 7.4
1 11 -2 40.5 8.8
1 11 -2 43.2 7.4
-1 11 2 39.1 11.3
-1 11 2 36.3 8.9
0 -11 -2 74.89 12
0 -11 2 96.79 9.5
0 -11 2 102.19 12.3
0 -11 -2 112.29 12.2
0 11 2 81.89 10.6
0 11 -2 102.89 12
0 11 2 94.49 12.5
0 11 2 81.49 9.8
0 11 -2 83.29 9.8
0 11 2 98.29 11.3
0 11 -2 92.79 10.3
1 -11 2 13 7.9
-1 -11 -2 15.3 8
1 -11 2 22.9 6.8
1 -11 2 18.6 6.6
-1 -11 -2 16.4 7.1
-1 -11 -2 12.6 6.5
1 -11 2 22.8 10.5
1 11 2 8.7 7.8
1 11 2 17 7.9
-1 11 -2 6.6 6.7
1 11 2 8.5 8.1
-1 11 -2 4 5.9
2 -11 2 94.79 11.9
-2 -11 -2 108.39 13.6
-2 -11 -2 100.29 11.5
-2 -11 -2 98.49 11.8
2 -11 2 106.69 17.3
2 -11 2 105.69 14
-2 11 -2 109.19 13.5
2 11 2 89.99 13.1
2 11 2 103.89 12.7
-2 11 -2 105.39 13.4
2 11 2 85.39 12.3
3 -11 2 77.69 13.9
-3 -11 -2 43.4 11.1
3 -11 2 64.49 12.2
-3 -11 -2 59.29 12
-3 11 -2 63.69 11.9
-4 -11 -2 0.2 12.7
-4 -11 -2 10.2 16
4 -11 2 -13 13.5
-4 11 -2 -1.8 13.6
-4 11 -2 4.2 14.1
5 -11 2 13.7 21.9
-4 -12 2 26.2 12.9
-4 -12 2 56.19 17
4 -12 -2 40.1 14.5
-4 12 2 24.6 15.8
-3 -12 2 505.65 31.4
3 -12 -2 464.25 29.1
-3 -12 2 517.45 28.9
-3 12 2 540.45 31.9
-3 12 2 485.75 35
-2 -12 2 337.67 22.5
2 -12 -2 361.46 22.3
2 -12 -2 391.76 25.7
-2 -12 2 349.96 21.1
2 12 -2 319.87 24.5
-2 12 2 334.57 24.7
2 12 -2 337.87 22.8
-2 12 2 370.96 23.6
1 -12 -2 158.08 21.2
-1 -12 2 188.78 15.3
1 -12 -2 171.78 14.8
1 -12 -2 178.68 15.8
-1 -12 2 171.98 16.5
-1 12 2 181.08 15.5
1 12 -2 181.68 14.8
-1 12 2 175.28 20.3
1 12 -2 186.28 16.7
-1 12 2 166.88 16.5
-1 12 2 170.58 17.1
1 12 -2 183.18 14.9
0 -12 -2 792.92 38
0 -12 2 811.82 37.2
0 -12 -2 745.53 40.1
0 12 2 756.82 38.4
0 12 2 750.62 38.4
0 12 2 760.12 41.2
0 12 2 797.02 38.2
0 12 -2 761.52 37.1
0 12 -2 797.42 37.5
0 12 -2 798.52 37
-1 -12 -2 698.23 36.1
1 -12 2 793.02 35.2
1 -12 2 706.33 39.9
-1 -12 -2 692.13 37.3
1 -12 2 785.12 37.5
1 -12 2 709.13 36.7
1 12 2 774.62 38.4
1 12 2 709.33 36.9
-1 12 -2 751.72 35.7
1 12 2 759.32 37.8
1 12 2 672.73 37.3
2 -12 2 326.87 22.8
2 -12 2 369.76 34.9
-2 -12 -2 317.07 21.9
2 -12 2 322.57 28.9
-2 -12 -2 353.06 22.7
-2 -12 -2 320.57 22.2
-2 12 -2 363.96 22.1
2 12 2 353.76 23.3
3 -12 2 193.58 22.4
3 -12 2 225.38 25.2
-3 -12 -2 207.38 23.1
-3 -12 -2 181.18 20.2
-3 12 -2 223.68 20
-3 12 -2 193.88 20.8
-4 -12 -2 93.79 17.9
-4 -12 -2 95.89 19.2
4 -12 2 111.79 20
-4 12 -2 110.49 18.2
-4 -13 2 21.9 18
-4 -13 2 4.2 12.8
-4 13 2 5.5 16.2
-3 -13 2 31.4 19.4
-3 -13 2 34.5 13.1
3 -13 -2 19.3 11.3
-3 13 2 19.9 13.1
2 -13 -2 20.3 8.3
-2 -13 2 28 8.7
2 -13 -2 4.7 13.8
-2 -13 2 18.1 9.4
-2 13 2 6.5 9.3
-2 13 2 10.9 12.6
1 -13 -2 204.78 17
-1 -13 2 212.88 17.4
-1 -13 2 173.68 19
1 -13 -2 201.88 25.4
1 -13 -2 226.08 18.2
-1 13 2 211.18 18.9
-1 13 2 220.58 20.1
1 13 -2 203.68 17.2
-1 13 2 239.38 23.4
1 13 -2 218.88 19.5
1 13 -2 207.48 17.3
-1 13 2 193.58 18.2
0 -13 -2 -0.4 7.7
0 -13 2 11.7 11.4
0 -13 -2 -16.6 10.7
0 13 2 -5.2 8
0 13 2 20 10
0 13 -2 4.3 6.2
0 13 -2 3.1 7.5
0 13 -2 8.9 9
0 13 2 14.3 9.4
0 13 2 -8.8 10.8
-1 -13 -2 1.1 8.2
-1 -13 -2 18.4 10.9
1 -13 2 1.5 8
1 -13 2 1.7 7.7
1 -13 2 -1.8 12.5
1 -13 2 21.2 10.7
-1 13 -2 26.1 9
1 13 2 13.9 9
1 13 2 -0.7 9.4
-1 13 -2 3.8 8.6
1 13 2 -0.7 10.5
-1 13 -2 2.5 7.4
-2 -13 -2 12.2 8.9
2 -13 2 -1.1 11.5
-2 -13 -2 4.6 9.5
2 -13 2 11.4 9.9
-2 -13 -2 7.7 10
-2 13 -2 21.9 9.6
2 13 2 0.2 11.8
-2 13 -2 5.5 10
3 -13 2 4.5 17.1
-3 -13 -2 17.7 15.7
3 -13 2 28 13.5
-3 -13 -2 28.3 12.5
-3 13 -2 22.7 10.7
-3 13 -2 12 12.1
-4 -13 -2 5.9 14.9
-4 -13 -2 -14 18.6
4 -13 2 1.3 18.8
-4 13 -2 21.8 17.6
-4 -14 2 232.08 27.1
4 -14 -2 269.47 26.8
-4 -14 2 245.38 26.5
-4 14 2 283.57 35.6
-3 -14 2 202.18 25.8
-3 -14 2 199.68 22.3
3 -14 -2 183.68 22.5
-3 14 2 230.18 27.1
2 -14 -2 408.76 27
-2 -14 2 412.06 27.3
-2 -14 2 434.56 25.9
-2 14 2 396.46 28.3
2 14 -2 430.66 28.3
1 -14 -2 838.62 41.4
-1 -14 2 798.32 40.5
1 -14 -2 827.72 41
-1 -14 2 771.92 45.2
1 14 -2 832.82 41
-1 14 2 862.91 46.2
-1 14 2 869.81 43.1
-1 14 2 787.32 46
0 -14 -2 177.98 24.2
0 -14 2 225.58 23.7
0 -14 2 250.67 18.6
0 -14 2 229.78 19.7
0 -14 -2 253.37 19.8
0 14 2 232.78 23.8
0 14 -2 201.38 18
0 14 -2 247.38 28
0 14 2 230.58 20
0 14 -2 226.58 20.9
-1 -14 -2 81.69 14.8
-1 -14 -2 89.09 12.8
1 -14 2 76.99 17.1
1 -14 2 103.19 14.4
1 -14 2 114.99 12.9
-1 14 -2 88.49 12.8
1 14 2 82.99 15.3
1 14 2 86.69 13.3
-1 14 -2 84.29 11.1
2 -14 2 99.69 16.8
-2 -14 -2 94.59 14.8
2 -14 2 112.39 16.5
-2 -14 -2 134.49 15.9
-2 -14 -2 114.69 15.3
-2 14 -2 123.99 14.7
-2 14 -2 138.79 16
2 14 2 105.79 17.5
-3 -14 -2 170.28 20.2
-3 -14 -2 176.48 19.2
3 -14 2 193.88 21.8
-3 14 -2 190.58 20.7
-3 14 -2 145.99 17.8
-4 -14 -2 100.09 18.9
-4 -14 -2 110.29 23.4
4 -14 2 115.89 23.6
-4 14 -2 104.09 21.9
-4 -15 2 -6.3 19.5
4 -15 -2 4.9 20.2
-4 -15 2 0.1 15.5
-4 15 2 -26.4 23.2
-3 -15 2 24.7 15.4
-3 -15 2 8 12.4
3 -15 -2 -18.3 14.1
-3 15 2 3.1 18
2 -15 -2 -12.5 11.5
-2 15 2 10.9 14.2
2 15 -2 2.9 11.7
1 -15 -2 116.19 14.7
-1 -15 2 160.78 17.8
1 -15 -2 158.48 19.4
-1 -15 2 134.89 15.3
-1 15 2 168.88 20.8
-1 15 2 145.79 21.5
1 15 -2 160.58 18.4
0 -15 2 112.39 13.2
0 -15 -2 52.89 20.2
0 -15 2 90.59 14.8
0 -15 -2 108.69 13.4
0 -15 2 86.99 16.7
0 15 -2 105.89 13.5
0 15 2 82.59 17
0 15 -2 52.29 13.7
0 15 2 71.99 14.4
-1 -15 -2 4.9 14.1
1 -15 2 43.4 10.7
-1 -15 -2 20 11.2
1 -15 2 30.2 11.7
-1 15 -2 25.6 12.2
1 15 2 44.2 14.5
1 15 2 29.9 12.8
-1 15 -2 34.2 10.3
-2 -15 -2 29 14.3
-2 -15 -2 -11.1 12.8
2 -15 2 -30.2 15.7
-2 -15 -2 18.7 12.5
2 -15 2 3.4 13.9
2 15 2 -1.5 15.1
-2 15 -2 14.6 13.2
-2 15 -2 -19.3 12.3
-3 -15 -2 8.6 14.7
-3 -15 -2 41.3 17.2
3 -15 2 18.5 15.8
-3 15 -2 50.49 14.8
-3 15 -2 23.8 13.8
3 -16 -2 250.97 28.7
-3 -16 2 216.78 21.4
-3 -16 2 184.78 22.5
-3 16 2 224.98 26.6
2 -16 -2 197.38 21.3
-2 -16 2 188.78 20.4
2 16 -2 220.68 24.7
-2 16 2 198.78 21.3
-1 -16 2 268.37 24.8
1 -16 -2 296.97 24.9
-1 -16 2 295.17 29.4
1 -16 -2 343.77 26.5
-1 16 2 325.97 27.1
1 16 -2 347.47 24.2
-1 16 2 280.07 34.9
0 -16 2 420.46 26.8
0 -16 2 423.86 29.4
0 -16 -2 382.46 28.1
0 -16 2 390.66 34.2
0 16 -2 389.96 26.8
0 16 2 399.56 33.5
0 16 2 419.66 29.2
1 -16 2 216.48 21.2
1 -16 2 220.28 23.9
-1 -16 -2 138.19 25.1
-1 -16 -2 158.78 23.2
1 16 2 220.78 26.7
-1 16 -2 195.08 21.2
1 16 2 203.78 23.7
2 -16 2 202.78 27.1
-2 -16 -2 235.58 30
-2 -16 -2 176.38 21.8
2 -16 2 226.68 26.7
-2 16 -2 236.08 23.7
2 16 2 209.88 26.8
2 16 2 203.18 24
3 -16 2 136.99 21.9
-3 -16 -2 108.39 18.8
-3 -16 -2 139.39 21.5
-3 16 -2 155.38 21.8
3 16 2 115.39 21.8
-3 -17 2 5.2 17.3
-3 -17 2 5 16.6
3 -17 -2 8.3 17.7
-3 17 2 19 21.2
3 17 -2 3.5 20.4
-2 -17 2 -2 15.7
2 17 -2 3.9 17.7
1 -17 -2 -39.2 14.1
-1 -17 2 -13.3 18.1
-1 -17 2 -6.6 12.5
1 -17 -2 5 13.4
-1 17 2 3.7 14.1
1 17 -2 16.1 12.6
0 -17 2 53.09 15.3
0 -17 -2 13.3 14.5
0 -17 -2 13.2 13.4
0 -17 2 36.1 13.4
0 17 2 -7.2 18.8
0 17 2 17.1 14.1
0 17 -2 19.3 12.5
-1 -17 -2 -9 14.5
1 -17 2 -0.3 12.7
1 -17 2 6.8 14.2
1 17 2 19.4 14.8
-1 17 -2 7.1 13.4
1 17 2 2.6 18
-2 -17 -2 -23.3 14.5
2 -17 2 -12.4 16.4
2 17 2 26.3 17.4
-2 17 -2 5.9 14.5
2 17 2 25.6 19.7
-3 -17 -2 -35.7 16.3
-3 -17 -2 -0.9 19.9
3 -17 2 22.9 20.8
3 17 2 23.9 20.7
-3 17 -2 10.8 19.4
2 -18 -2 133.89 21.4
-2 -18 2 97.59 20.4
-2 18 2 118.29 21.9
2 18 -2 98.29 19.9
1 -18 -2 210.68 28.3
-1 -18 2 265.37 27.5
-1 18 2 248.88 26.1
1 18 -2 204.68 23.1
0 -18 2 173.68 19.9
0 -18 -2 173.98 21.3
0 -18 2 194.68 23.2
0 -18 -2 192.18 22.3
0 18 -2 200.88 25.8
0 18 2 168.98 29.3
0 18 2 205.98 23.5
-1 -18 -2 134.99 20
1 -18 2 175.88 26.3
1 -18 2 134.49 22.3
-1 18 -2 167.28 19.7
1 18 2 154.38 22.6
1 18 2 149.79 25.4
-2 -18 -2 258.37 31.4
2 -18 2 243.68 29.2
-2 18 -2 300.67 30.7
2 18 2 224.48 40.8
2 18 2 242.08 28.5
-1 -19 2 18.7 17.1
1 -19 -2 -3.4 17.4
-1 19 2 32.9 19.5
1 19 -2 2.7 17
0 -19 -2 9.7 16.8
0 -19 2 30.2 19
0 -19 2 19.7 16.9
0 -19 -2 23 18.9
0 19 2 -24.4 24
0 19 -2 43.3 16.6
1 -19 2 23.9 19.6
-1 -19 -2 2 17.7
1 -19 2 4.1 17.3
1 19 2 3.3 26
-1 19 -2 32.3 17
0 -20 -2 128.69 24.3
0 -20 2 140.29 23.6
0 20 2 117.49 25
0 20 -2 130.09 22.8
-6 0 3 27.7 17.3
-6 0 3 -17.3 20.7
-5 0 3 10.4 13.5
-5 0 3 -9.2 13.3
-4 0 3 23.3 9.3
-4 0 3 20.3 9.3
4 0 -3 24.4 10.2
-4 0 3 26.9 10.5
-2 0 3 9.1 3.8
2 0 -3 16.4 4.4
-2 0 3 12.6 3.7
1 0 -3 1.5 1.6
-1 0 3 -0.6 1.7
1 0 -3 2.8 1.9
-1 0 3 5.9 1.9
-1 0 3 8.8 2.3
0 0 3 -0.4 1.4
0 0 3 0.8 1
0 0 -3 1.4 1.1
0 0 -3 1.1 1.1
-1 0 -3 3.9 2.3
1 0 3 4.3 2.4
-1 0 -3 1.5 2.6
1 0 3 0.5 2.9
2 0 3 4.9 4.7
-2 0 -3 14.9 3.4
-2 0 -3 11.1 4.7
2 0 3 5 3.9
-3 0 -3 16.8 7.6
4 0 3 25 11
4 0 3 12.3 9.7
-4 0 -3 34.2 9.4
-4 0 -3 21.5 6.9
-5 0 -3 20.5 27.3
5 0 3 15.6 16.3
-5 0 -3 4.7 10.1
-6 -1 3 64.49 18.7
-6 -1 3 47.1 21.5
-6 1 3 49 21.4
-6 1 3 68.39 18.9
5 -1 -3 285.07 28.8
-5 -1 3 274.67 26.6
-5 -1 3 296.67 25.9
-5 1 3 270.67 26.6
-5 1 3 261.17 26.6
4 -1 -3 258.77 20.1
-4 -1 3 163.88 20.2
-4 -1 3 185.88 16.9
4 -1 -3 232.18 20.1
-4 -1 3 193.88 17.7
-4 1 3 235.58 19.6
4 1 -3 210.48 23.2
-4 1 3 198.78 17.2
-3 -1 3 387.16 22.6
-3 -1 3 383.46 21.4
3 -1 -3 407.46 22.2
3 -1 -3 422.76 22.4
3 -1 -3 424.76 22.7
-3 1 3 404.26 21.5
3 1 -3 417.26 22.2
-3 1 3 444.16 22.4
-2 -1 3 1044.9 43.9
2 -1 -3 1037.3 43.8
2 -1 -3 897.61 45.1
-2 -1 3 991.7 43
2 -1 -3 1020.1 43.5
2 1 -3 940.61 43.9
-2 1 3 1033.2 43.2
-2 1 3 957.1 43
-1 -1 3 1286.87 55.39
1 -1 -3 1328.07 55.89
1 -1 -3 1465.15 56.59
-1 1 3 1430.96 56.69
1 1 -3 1291.57 55.39
-1 1 3 1194.98 56.39
0 -1 -3 790.22 37.1
0 -1 3 924.51 37.2
0 1 -3 935.71 37.3
0 1 3 975.1 38.3
0 1 3 807.02 37.2
-1 -1 -3 3059.69 123.99
-1 -1 -3 2863.01 123.59
1 -1 3 2866.31 124.89
1 -1 3 3020.8 123.49
1 1 3 3016.2 122.79
-1 1 -3 3119.19 123.99
-1 1 -3 2928.81 123.39
1 1 3 3002.3 123.69
-2 -1 -3 1133.59 47.6
2 -1 3 1093.29 47.6
2 -1 3 1097.19 48.5
-2 -1 -3 1093.79 48.4
-2 1 -3 1106.69 47.4
2 1 3 1047 46.1
2 1 3 1108.99 47.6
-2 1 -3 1039.9 47.9
2 1 3 1052.79 48.6
-3 -1 -3 667.83 31.6
3 -1 3 685.63 32.2
3 -1 3 639.14 33.1
-3 -1 -3 609.24 29.6
-3 -1 -3 638.84 33.3
-3 1 -3 638.94 32.7
-3 1 -3 705.83 32
3 1 3 609.54 33.3
3 1 3 668.73 32.2
4 -1 3 180.88 19.7
-4 -1 -3 156.88 14.2
-4 -1 -3 162.18 16.4
4 -1 3 158.48 20.3
-4 1 -3 137.69 17.4
4 1 3 146.99 18.2
-4 1 -3 138.89 14.2
4 1 3 148.49 16.3
-5 -1 -3 87.59 12.2
5 -1 3 83.79 17.4
-5 1 -3 115.99 21.5
-5 1 -3 93.99 12.4
5 1 3 72.39 18.5
-6 -2 3 24.1 16.3
-6 -2 3 -24.5 20.5
-6 2 3 23.6 18.7
-6 2 3 -1.5 20.8
-5 -2 3 -12.9 11.6
5 -2 -3 28.4 16.4
5 -2 -3 -14.7 18.3
-5 -2 3 12.7 13.4
-5 2 3 -28.3 12.6
-5 2 3 22.7 14
4 -2 -3 53.89 11.1
-4 -2 3 85.49 10.8
-4 -2 3 81.69 12.4
-4 -2 3 79.59 10.8
-4 2 3 64.99 9.8
-4 2 3 64.59 11.7
4 2 -3 58.09 12.2
3 -2 -3 41.8 6.9
3 -2 -3 44.1 7.3
-3 2 3 30.6 6.7
-3 2 3 40.3 7.1
2 -2 -3 58.29 6.6
2 -2 -3 87.89 8.6
-2 -2 3 57.39 6.6
2 -2 -3 59.99 7.4
-2 -2 3 59.19 6.9
-2 -2 3 83.09 8.4
-2 2 3 78.19 9.1
-2 2 3 81.89 7.1
-2 2 3 58.09 6.4
-1 -2 3 76.69 4.9
1 -2 -3 94.59 6
1 -2 -3 96.19 6.7
-1 2 3 95.79 7.2
-1 2 3 82.19 6
1 2 -3 74.19 4.7
0 -2 3 53.79 3.9
0 -2 -3 44.7 3.8
0 -2 -3 51.99 4.6
0 2 3 42.2 4
0 2 3 42.8 3.8
0 2 3 55.49 5.1
-1 -2 -3 2722.93 110.79
1 -2 3 2656.53 110.79
1 -2 3 2637.84 109.99
-1 -2 -3 2665.03 109.79
-1 -2 -3 2674.13 110.39
1 2 3 2658.23 110.39
1 2 3 2586.14 110.79
1 2 3 2617.74 109.69
-1 2 -3 2701.93 110.69
-1 2 -3 2629.94 109.99
-2 -2 -3 5.7 5
-2 -2 -3 12.7 3.6
-2 -2 -3 9.3 3.9
2 -2 3 1.6 3.9
2 -2 3 8.3 4.3
2 2 3 8.8 3.3
2 2 3 13 5
-2 2 -3 10.1 3.9
2 2 3 9.6 4.4
-2 2 -3 9.3 4.5
3 -2 3 53.69 8.3
3 -2 3 35 7.2
-3 2 -3 49.8 7.6
-3 2 -3 31.7 7.9
3 2 3 44.3 8.7
-4 -2 -3 14.9 8.4
-4 -2 -3 3 7.1
4 -2 3 11.4 10.1
4 -2 3 42.4 11.9
4 2 3 16.6 11.6
-4 2 -3 31.8 9.8
4 2 3 16.3 11.6
-4 2 -3 32.5 7
-5 -2 -3 10 16.1
5 -2 3 -0.2 15.1
-5 -2 -3 5.5 10.8
5 2 3 -9.1 16
-5 2 -3 -12.6 10.6
-5 2 -3 -12.1 16.5
5 -3 -3 244.28 27.6
5 -3 -3 251.77 26.9
-5 -3 3 256.37 23.4
-5 3 3 208.78 26
-4 -3 3 281.77 21
-4 -3 3 267.57 23.9
4 -3 -3 288.67 22
4 -3 -3 291.17 25.6
-4 -3 3 299.87 19.5
-4 3 3 261.37 21.5
4 3 -3 288.77 22.9
-4 3 3 282.47 20.1
-3 -3 3 159.08 15.3
3 -3 -3 156.58 13.6
3 -3 -3 159.68 13.2
-3 -3 3 159.28 13.1
3 -3 -3 155.28 15.3
-3 -3 3 173.18 11.9
3 3 -3 162.98 12.8
-3 3 3 164.88 12.6
-3 3 3 148.39 12.5
2 -3 -3 1918.31 81.89
2 -3 -3 1949.8 82.39
-2 -3 3 2032.1 83.59
-2 -3 3 1882.71 82.29
2 -3 -3 1968.4 83.09
-2 -3 3 1966 81.59
-2 3 3 1903.71 82.29
2 3 -3 1906.41 82.49
-2 3 3 1963.7 83.39
-2 3 3 1918.51 81.49
-1 -3 3 2417.66 98.09
-1 -3 3 2301.87 98.99
1 -3 -3 2341.57 99.19
1 -3 -3 2404.26 99.99
-1 3 3 2366.56 99.29
1 3 -3 2409.76 97.99
-1 3 3 2395.66 100.19
0 -3 3 1695.03 67.39
0 -3 -3 1443.86 66.99
0 -3 -3 1495.45 67.89
0 -3 -3 1606.44 67.29
0 3 3 1599.94 67.29
0 3 -3 1880.41 66.59
0 3 3 1506.65 67.09
-1 -3 -3 -1.8 3
1 -3 3 -2.9 2
-1 -3 -3 -1.5 3.1
1 -3 3 -0.8 2.4
-1 -3 -3 3.6 2.9
1 3 3 -0.4 2.5
1 3 3 -0.4 2.5
1 3 3 1.8 3.5
1 3 3 0.1 2.7
-1 3 -3 1.8 2.6
-1 3 -3 0.3 2.4
-2 -3 -3 2286.47 94.59
-2 -3 -3 2194.38 95.39
2 -3 3 2302.07 94.39
2 -3 3 2242.88 95.29
-2 -3 -3 2141.49 93.29
-2 3 -3 2257.17 94.29
2 3 3 2193.78 93.49
2 3 3 2237.58 94.39
-2 3 -3 2236.08 94.89
2 3 3 2244.28 94.79
2 3 3 2221.58 95.89
-3 -3 -3 115.89 13.3
-3 -3 -3 101.69 10.5
3 -3 3 115.29 12.8
3 -3 3 95.69 12.6
-3 -3 -3 116.69 12.2
3 3 3 96.19 12.1
-3 3 -3 111.19 11.8
3 3 3 131.59 11.7
-3 3 -3 123.49 13.6
3 3 3 109.29 13.2
-4 -3 -3 276.07 21.9
4 -3 3 308.97 23.7
-4 -3 -3 296.17 20
4 -3 3 290.27 23.4
4 3 3 276.57 25.2
-4 3 -3 319.47 21.9
4 3 3 241.18 24.5
4 3 3 322.47 21
-5 -3 -3 173.88 17.5
-5 -3 -3 169.08 21.4
5 -3 3 141.59 21.1
5 3 3 199.18 22.8
-5 3 -3 196.68 24.6
-5 3 -3 172.18 20.5
5 3 3 130.79 23.3
5 -4 -3 14.1 21.4
-5 -4 3 2.1 14.1
5 -4 -3 -1.1 14.1
-5 -4 3 0.6 11.4
-5 4 3 18.2 13.7
-4 -4 3 17.3 7.6
-4 -4 3 18.1 13
4 -4 -3 6.7 9.3
-4 -4 3 24.5 8.8
4 -4 -3 1.9 13.1
-4 4 3 16.2 9.2
-4 4 3 2.6 9.7
-3 -4 3 8.3 5.2
-3 -4 3 9.8 5.6
3 -4 -3 26.3 7.8
3 -4 -3 10.9 6.1
3 -4 -3 13.9 8.6
-3 -4 3 -6.4 8
-3 4 3 15.2 6
-3 4 3 6.2 5.5
3 4 -3 4.3 5.8
2 -4 -3 27 9
-2 -4 3 36.1 5.8
2 -4 -3 37 6.1
-2 -4 3 32.7 4.9
2 -4 -3 46.4 5.7
-2 4 3 46.4 6
-2 4 3 31.1 5.2
2 4 -3 32.4 4.7
-2 4 3 38.7 7.2
1 -4 -3 51.79 5.8
1 -4 -3 56.29 7
-1 -4 3 51.59 5.2
-1 -4 3 45.3 4.5
1 4 -3 46.3 5.6
-1 4 3 52.29 6.9
1 4 -3 44.3 3.9
-1 4 3 53.59 5.6
0 -4 3 330.97 14.2
0 -4 -3 275.07 14.8
0 -4 -3 301.87 15.7
0 4 3 321.17 16.3
0 4 3 292.57 15
0 4 -3 342.97 14.1
0 4 3 298.37 15
1 -4 3 55.99 5.4
-1 -4 -3 50.49 5.9
-1 -4 -3 51.09 5.9
1 -4 3 44.8 5.2
-1 -4 -3 57.69 6.5
-1 -4 -3 58.49 5.9
-1 4 -3 52.59 6
1 4 3 59.49 5.7
1 4 3 50.59 6.5
1 4 3 48.8 5.7
-1 4 -3 40.7 4.9
2 -4 3 105.49 9.7
2 -4 3 118.89 10.4
-2 -4 -3 121.19 9.1
-2 -4 -3 107.79 9.5
-2 -4 -3 107.09 11.6
2 4 3 118.79 9.2
2 4 3 132.39 11.2
-2 4 -3 101.99 8.8
-2 4 -3 100.19 10
2 4 3 106.09 9.4
3 -4 3 -2.7 5.8
-3 -4 -3 5.8 5.2
-3 -4 -3 2.9 5.3
3 -4 3 10.7 6.7
-3 -4 -3 11.4 9.5
-3 4 -3 4.3 6.9
-3 4 -3 2.9 5.8
3 4 3 12.6 5.4
3 4 3 -2.8 7.8
3 4 3 7.2 7.2
3 4 3 3.3 6.3
-4 -4 -3 9.4 7.9
-4 -4 -3 12.7 9.1
4 -4 3 12.8 10
4 -4 3 -16.4 11.8
4 4 3 22.5 11.2
4 4 3 10.5 8.6
-4 4 -3 -7.5 8.9
5 -4 3 -16.2 15.1
-5 -4 -3 11.6 14.2
-5 -4 -3 -8.6 12.5
-5 4 -3 12.8 21.3
5 4 3 31.8 13.3
5 -5 -3 87.09 17.2
-5 -5 3 87.39 18.1
-5 -5 3 85.59 15.2
-5 5 3 121.99 19.4
-4 -5 3 430.86 27
4 -5 -3 470.35 26.8
-4 -5 3 402.36 30.8
-4 -5 3 437.76 25.3
4 -5 -3 404.16 32.4
-4 5 3 484.65 27.4
-4 5 3 401.56 26.8
-3 -5 3 675.33 31.7
3 -5 -3 645.34 31.8
3 -5 -3 715.23 37.6
3 -5 -3 672.23 33.1
-3 -5 3 636.44 32.4
-3 -5 3 657.83 34.9
-3 5 3 653.73 32.8
3 5 -3 641.24 31.6
-3 5 3 663.63 31.8
2 -5 -3 403.86 22.8
-2 -5 3 404.36 20
2 -5 -3 439.56 21.8
-2 -5 3 426.56 21.1
2 -5 -3 411.06 20.2
-2 5 3 440.86 21.5
2 5 -3 408.86 20
-2 5 3 421.76 20
-2 5 3 413.86 23.5
-1 -5 3 1542.45 58.59
-1 -5 3 1296.27 58.99
1 -5 -3 1399.26 60.09
1 -5 -3 1403.56 60.99
1 5 -3 1413.36 58.29
-1 5 3 1364.86 59.39
-1 5 3 1326.47 60.99
1 5 -3 1382.66 59.19
-1 5 3 1383.56 59.99
0 -5 3 1242.38 49.7
0 -5 3 1167.38 49.4
0 -5 -3 1116.39 50.09
0 -5 -3 1141.29 51.29
0 5 3 1191.18 50.29
0 5 3 1192.38 50.99
0 5 -3 1158.28 49.3
0 5 -3 1203.08 49.4
0 5 3 1184.58 50.49
0 5 3 1127.89 51.29
-1 -5 -3 955.3 44.3
1 -5 3 1019.8 44
-1 -5 -3 991.4 43.2
-1 -5 -3 993.7 43.9
1 -5 3 980.6 43
-1 5 -3 976.9 42.9
1 5 3 1025.8 44.2
1 5 3 1004.6 43.3
1 5 3 1033 43.9
-1 5 -3 968.8 44.9
-2 -5 -3 756.52 34.4
-2 -5 -3 765.02 33.5
2 -5 3 729.03 34.1
-2 -5 -3 713.23 35.5
2 -5 3 729.13 34.6
2 5 3 733.93 34
-2 5 -3 722.43 33.7
2 5 3 740.23 34.3
2 5 3 733.83 33.6
-2 5 -3 741.23 34.6
3 -5 3 250.47 18.4
-3 -5 -3 254.87 20.7
-3 -5 -3 260.17 17.7
-3 -5 -3 248.48 16.3
3 -5 3 274.77 18.7
3 5 3 235.98 18.6
-3 5 -3 256.97 16.7
-3 5 -3 254.97 19.5
3 5 3 284.97 16.9
4 -5 3 273.77 22.9
-4 -5 -3 248.28 19.3
-4 -5 -3 246.68 21.2
4 -5 3 308.57 24.4
4 5 3 241.28 19.5
-4 5 -3 213.38 20.8
5 -5 3 120.99 22.2
-5 -5 -3 115.79 16.6
-5 -5 -3 82.89 18.5
5 5 3 122.99 16
5 -6 -3 -14.1 14.4
-5 -6 3 1.6 11.9
-5 -6 3 6.3 15.3
-5 6 3 10.4 15
-4 -6 3 -0.2 10.1
4 -6 -3 7.9 15.9
4 -6 -3 8.2 8.5
-4 -6 3 1.5 8
-4 6 3 -3.4 10.2
-4 6 3 9.7 8.3
3 -6 -3 41 9.8
3 -6 -3 43.5 11.4
3 -6 -3 49.8 7.6
-3 -6 3 56.39 11.4
-3 -6 3 50.49 8.6
-3 -6 3 46 7.9
-3 6 3 53.49 9
-3 6 3 38.2 7.7
3 6 -3 37.6 7.8
2 -6 -3 33.4 6.7
-2 -6 3 24.6 4.4
-2 -6 3 23 5
2 -6 -3 24.1 4.6
2 -6 -3 30.1 8.3
-2 6 3 17.8 7
2 6 -3 15.6 4.4
-2 6 3 18 4.3
-2 6 3 17.4 4.9
-1 -6 3 127.09 7.4
1 -6 -3 105.39 10.9
1 -6 -3 123.09 9.7
-1 -6 3 121.39 8.6
1 6 -3 108.39 9.8
1 6 -3 116.49 7.3
-1 6 3 117.69 9.4
-1 6 3 128.99 11.5
-1 6 3 118.69 9.4
0 -6 -3 22.1 4.5
0 -6 -3 24.8 5.1
0 -6 3 18.3 3.7
0 6 3 16.5 5
0 6 3 10.5 4.2
0 6 -3 20.6 3.3
0 6 -3 26.4 3.2
0 6 3 17 4
0 6 -3 22.3 3.7
0 6 3 23.1 4.2
-1 -6 -3 58.19 6.8
-1 -6 -3 41.8 5.7
-1 -6 -3 48.7 5.7
-1 -6 -3 40.1 6.9
1 -6 3 34.4 5.4
1 -6 3 46.6 5.5
-1 6 -3 52.39 6.7
1 6 3 48.1 6
1 6 3 53.39 6.6
-1 6 -3 46.3 5.4
-2 -6 -3 36.1 6.5
-2 -6 -3 43.7 6.5
2 -6 3 53.89 7.3
2 -6 3 34.8 7.1
-2 -6 -3 45.3 8.5
2 6 3 46.8 7
-2 6 -3 50.39 7.9
2 6 3 41.5 6.8
2 6 3 46.2 7
-2 6 -3 46.6 5.8
-3 -6 -3 3.6 9.6
3 -6 3 8.1 7
-3 -6 -3 18.7 6.5
3 -6 3 20.6 7.9
-3 -6 -3 7.1 6.4
3 6 3 13.1 7.5
-3 6 -3 12.6 7.9
-3 6 -3 4.6 6.1
3 6 3 6.7 6.5
3 6 3 10.9 8.1
-4 -6 -3 4.3 8.8
4 -6 3 -2.8 11.8
4 -6 3 -9.1 12.5
-4 -6 -3 -5.4 8.5
-4 6 -3 15.5 9.9
4 6 3 -2.8 9.6
-5 -6 -3 -2 15.8
-5 -6 -3 19.3 15.1
5 -6 3 12.9 16.8
5 6 3 -4 13.6
-5 6 -3 8.8 19.9
5 -7 -3 37 17.6
-5 -7 3 42.4 13.7
-5 -7 3 37 16.6
-5 7 3 61.49 16.8
4 -7 -3 365.26 24.2
-4 -7 3 321.97 23
4 -7 -3 334.97 32.5
-4 -7 3 323.47 25.1
-4 7 3 394.86 25.4
-4 7 3 385.16 25.5
3 -7 -3 641.34 32.8
-3 -7 3 604.64 30.2
3 -7 -3 594.04 30.4
3 -7 -3 574.54 35.2
-3 -7 3 611.54 31.4
-3 -7 3 622.14 35.2
-3 7 3 631.74 31.8
3 7 -3 626.74 30.6
-3 7 3 625.94 30.3
2 -7 -3 414.86 20.6
2 -7 -3 411.36 24.8
-2 -7 3 394.96 21.4
-2 -7 3 429.66 20.3
2 -7 -3 433.36 24.5
-2 7 3 460.95 22.3
-2 7 3 417.76 21.8
2 7 -3 418.96 20.5
-2 7 3 336.47 20.9
-2 7 3 405.66 24.5
1 -7 -3 612.04 30.9
-1 -7 3 676.53 28
1 -7 -3 633.54 29.9
1 -7 -3 615.94 28.1
-1 -7 3 611.14 28.5
-1 7 3 623.74 31.4
-1 7 3 602.74 29.3
1 7 -3 615.64 28.5
-1 7 3 594.24 29
1 7 -3 597.24 28.3
0 -7 -3 2027 86.99
0 -7 -3 1931.21 87.99
0 -7 3 2090.09 86.19
0 -7 3 2043.5 87.59
0 7 -3 2014.5 85.99
0 7 3 2073.99 88.09
0 7 -3 2233.08 86.09
0 7 -3 2057.69 86.19
0 7 3 2020.5 88.59
0 7 3 2055.89 86.99
-1 -7 -3 240.08 14.6
1 -7 3 250.97 14.9
1 -7 3 254.37 13.9
-1 -7 -3 249.08 14.4
-1 7 -3 236.08 13.7
1 7 3 243.68 14.8
1 7 3 260.17 14.8
1 7 3 266.57 15.6
2 -7 3 439.16 23.3
-2 -7 -3 402.56 21.6
-2 -7 -3 419.96 22.4
2 -7 3 425.76 22.5
-2 -7 -3 424.46 24.8
2 7 3 429.86 22.5
-2 7 -3 437.86 23.1
2 7 3 457.75 23
-2 7 -3 400.26 21.6
3 -7 3 414.66 24.8
3 -7 3 430.86 30.6
-3 -7 -3 394.96 24
-3 -7 -3 407.26 23.8
-3 -7 -3 371.96 27
3 7 3 377.36 24.7
-3 7 -3 395.16 23.1
3 7 3 426.06 23.9
3 7 3 423.06 24.4
-3 7 -3 387.56 24.8
-4 -7 -3 167.68 20.1
-4 -7 -3 198.98 20.4
4 -7 3 182.08 20.2
4 -7 3 187.88 22.1
4 7 3 191.38 19.2
-4 7 -3 183.28 19.9
-5 -7 -3 149.39 23.8
5 -7 3 170.78 25.6
-5 -7 -3 170.88 23.4
-5 7 -3 188.88 24.6
5 -8 -3 19.2 19.4
-5 -8 3 -3.8 16.8
-5 -8 3 -5.9 12.6
-5 8 3 -12.2 15.8
-4 -8 3 -1.6 11.1
-4 -8 3 10 9.1
4 -8 -3 -14 8.9
-4 8 3 -3.7 10
-4 8 3 -4.5 10.9
-3 -8 3 168.28 15.4
3 -8 -3 126.39 13.5
3 -8 -3 162.38 18
-3 -8 3 131.49 12.6
-3 -8 3 114.49 16.1
3 -8 -3 118.29 13.7
3 8 -3 111.39 11.8
-3 8 3 148.89 15.7
-3 8 3 146.09 14.2
-2 -8 3 24.8 5.9
2 -8 -3 18.7 7.1
2 -8 -3 14.2 5
-2 -8 3 14.3 5.3
2 -8 -3 17 9
-2 8 3 13.8 8.5
-2 8 3 21.2 7.8
2 8 -3 11.2 7.1
-2 8 3 22.7 6.9
-1 -8 3 9.8 4.2
-1 -8 3 11.5 3.7
1 -8 -3 7.6 3.7
1 -8 -3 7.6 7
1 -8 -3 10.2 5.7
-1 8 3 12.3 4.5
1 8 -3 14.1 4.1
1 8 -3 5.1 4.7
-1 8 3 9.4 5.2
-1 8 3 3.9 5.6
0 -8 -3 58.69 7.1
0 -8 -3 54.09 7.9
0 -8 3 57.39 7.1
0 -8 3 55.39 7.8
0 8 3 48.4 7.6
0 8 -3 59.99 6.2
0 8 3 50.79 7
0 8 3 49.9 8
0 8 3 60.89 7.6
0 8 -3 56.69 6.1
0 8 -3 55.29 6.9
1 -8 3 54.39 6
-1 -8 -3 45.7 7
1 -8 3 50.79 7.2
1 -8 3 46.7 6.6
1 -8 3 48.9 9.1
-1 -8 -3 46.2 6.4
-1 -8 -3 58.59 8.1
1 8 3 34.3 7.3
1 8 3 43.7 7
1 8 3 53.49 7.3
-1 8 -3 65.19 6.8
-2 -8 -3 11.6 5.5
-2 -8 -3 -0.8 5.7
2 -8 3 1.1 5.5
-2 -8 -3 13.4 8.9
2 -8 3 -6.8 8.9
2 -8 3 10.5 7.1
-2 -8 -3 -3.3 5.6
2 8 3 9.2 7.1
-2 8 -3 7.2 6.2
2 8 3 5.1 6.7
2 8 3 -0.1 6.3
-2 8 -3 1.1 4.9
-3 -8 -3 -8.9 8.2
-3 -8 -3 3.9 7.6
3 -8 3 1.8 7.8
3 -8 3 14.4 14.5
-3 -8 -3 1.3 11.5
3 -8 3 0.4 8.6
-3 8 -3 6.4 8.4
3 8 3 3.7 7.4
-3 8 -3 5.7 6.9
3 8 3 5.5 9.2
3 8 3 18.5 9.6
-4 -8 -3 32.4 12
4 -8 3 13.3 13
4 -8 3 -19.1 14
-4 -8 -3 12 11.8
-4 8 -3 25.7 11.1
4 8 3 17.9 10.9
-5 -8 -3 42.7 17.8
-5 -8 -3 4 18.3
5 -8 3 10.3 19.6
-5 8 -3 14.2 17.4
-5 -9 3 168.58 23.1
5 -9 -3 189.88 24.9
-5 -9 3 146.29 18.9
-5 9 3 143.49 23.5
-4 -9 3 94.59 18.7
-4 -9 3 90.09 12.5
4 -9 -3 82.29 13.1
-4 9 3 43.8 13.7
-4 9 3 75.99 15.5
-3 -9 3 329.97 21.9
-3 -9 3 352.46 20.7
3 -9 -3 342.57 29.9
3 -9 -3 366.96 21.7
-3 -9 3 344.47 28.6
3 -9 -3 311.67 24.7
-3 9 3 342.97 24.4
-3 9 3 376.06 22.6
-3 9 3 353.46 20.7
3 9 -3 357.26 22.6
2 -9 -3 302.07 24.5
-2 -9 3 335.07 20
2 -9 -3 310.37 18.3
2 -9 -3 343.37 21.5
-2 -9 3 344.77 18.6
-2 9 3 354.86 20.3
2 9 -3 320.67 18.5
2 9 -3 336.67 20.6
-2 9 3 355.36 24.8
-2 9 3 320.87 20.5
1 -9 -3 468.55 25.1
-1 -9 3 437.36 22.6
1 -9 -3 450.45 22.5
1 9 -3 478.35 22.3
1 9 -3 453.25 23.3
-1 9 3 462.65 26.1
-1 9 3 457.05 24
1 9 -3 450.65 22.9
-1 9 3 443.06 26.4
0 -9 -3 1166.88 54.89
0 -9 3 1239.58 52.49
0 -9 -3 1179.18 53.39
0 -9 3 1187.48 54.19
0 9 3 1196.18 53.49
0 9 -3 1266.47 52.39
0 9 3 1195.18 54.39
0 9 3 1148.19 55.29
0 9 -3 1215.08 52.59
0 9 3 1240.48 53.79
0 9 -3 1218.88 52.39
-1 -9 -3 1022.3 46.8
-1 -9 -3 980.1 45.8
1 -9 3 1045.3 45.8
1 -9 3 977.4 46.4
1 -9 3 1053.59 44.4
-1 -9 -3 1025.6 46.3
1 -9 3 1032.8 48.3
-1 9 -3 1005.5 44.2
-1 9 -3 1030.7 45.5
1 9 3 993.9 47.1
1 9 3 997.8 46.9
-2 -9 -3 459.35 24.7
-2 -9 -3 454.35 24.2
2 -9 3 434.76 29.1
-2 -9 -3 439.96 24.5
2 -9 3 431.76 24.9
-2 -9 -3 437.26 28.6
2 -9 3 440.86 24.4
2 9 3 451.05 25.4
-2 9 -3 432.56 24.9
2 9 3 458.95 25.2
-2 9 -3 447.06 23.5
2 9 3 431.66 24.7
3 -9 3 186.18 19.6
-3 -9 -3 145.89 18.7
3 -9 3 197.38 18.5
-3 -9 -3 172.38 17.4
-3 -9 -3 186.88 17.7
3 9 3 216.08 18.4
3 9 3 205.78 22.7
-3 9 -3 195.88 23
3 9 3 161.68 17.1
-3 9 -3 230.38 17.4
-4 -9 -3 376.16 28.6
-4 9 -3 327.57 27.1
-5 -9 -3 14.8 19.3
5 -9 3 30.9 20.7
-5 -9 -3 32.3 18.9
-5 9 -3 21.4 20.6
-5 -10 3 20.1 19.2
-5 -10 3 -13.3 14.7
5 -10 -3 5.3 18.6
-5 10 3 -6 19.2
-4 -10 3 1.5 12.6
-4 -10 3 11.1 11.4
4 -10 -3 9.5 11.1
3 -10 -3 -3.8 16.9
3 -10 -3 23.1 8.7
-3 -10 3 3.7 8.9
-3 -10 3 9.5 7.4
3 10 -3 0.1 10
-3 10 3 16.2 9.6
-3 10 3 1.1 11.3
-3 10 3 5.5 8.3
2 -10 -3 0 8.2
-2 -10 3 16.7 7.1
2 -10 -3 3.4 5.6
-2 -10 3 11.7 6.4
2 -10 -3 -0.1 11.7
2 10 -3 16.6 6.5
-2 10 3 1.4 8.1
-2 10 3 -0.1 7.1
2 10 -3 10.8 8.3
-2 10 3 -7.4 9.8
1 -10 -3 55.09 7.6
1 -10 -3 48.1 10.8
-1 -10 3 48.2 7.8
-1 -10 3 49.4 8
-1 10 3 58.59 11.7
1 10 -3 53.09 8.2
-1 10 3 48.1 7.9
-1 10 3 61.29 8.6
1 10 -3 39.9 8.7
-1 10 3 53.89 9.3
0 -10 -3 38.1 15.1
0 -10 3 42.3 9
0 -10 -3 30.8 7
0 -10 3 44.2 6.8
0 10 -3 42.2 6.8
0 10 3 36.2 7.1
0 10 3 26.5 6.5
0 10 -3 37 6.8
0 10 3 32.1 8.7
0 10 -3 40.6 6.1
0 10 3 35.8 8.1
-1 -10 -3 4 6
1 -10 3 7.1 5.3
1 -10 3 5.5 4.9
-1 -10 -3 11.9 5.4
-1 -10 -3 6.1 7.2
1 -10 3 7.3 6.5
1 -10 3 13.6 9.4
1 10 3 5 7.1
-1 10 -3 9.3 5.6
1 10 3 15.1 6.8
1 10 3 5.7 6.9
-1 10 -3 10.2 5.1
-2 -10 -3 10.7 6.5
-2 -10 -3 13.2 7.6
2 -10 3 -0.9 6.4
-2 -10 -3 2.7 11.1
-2 -10 -3 15.8 7.9
2 -10 3 14 12.3
2 -10 3 6.7 7.4
-2 10 -3 0.7 5.9
2 10 3 14.5 9.1
-2 10 -3 17.2 7.3
2 10 3 -17.4 8
2 10 3 7.2 8.4
3 -10 3 115.99 14.2
-3 -10 -3 102.39 13.1
-3 -10 -3 92.79 12.3
3 -10 3 77.19 13.1
3 10 3 95.69 12.5
-3 10 -3 102.69 12.4
4 -10 3 16.3 14.4
-4 -10 -3 -4.1 18.1
-4 -10 -3 26.2 14.6
-4 10 -3 -2.1 13.3
-5 -10 -3 0 18.6
5 -10 3 14.4 21.4
-5 -10 -3 -18.4 20.9
-5 10 -3 32.8 22.6
-5 -11 3 140.09 23.8
5 -11 -3 160.28 25.8
-5 -11 3 120.49 19
-5 11 3 172.18 26.8
-4 -11 3 81.39 17
-4 -11 3 85.79 13.9
4 -11 -3 82.79 15.2
-4 11 3 79.09 18.3
-3 -11 3 916.91 43.1
-3 -11 3 856.21 44.3
3 -11 -3 862.91 43.5
-3 11 3 872.71 46
-3 11 3 941.61 45.9
2 -11 -3 199.48 15.4
2 -11 -3 218.78 19.9
2 -11 -3 244.58 25.2
-2 -11 3 196.28 16.8
-2 -11 3 215.88 15.5
2 11 -3 198.28 16.5
-2 11 3 201.08 19.6
-2 11 3 213.78 18.6
-2 11 3 214.88 21.9
2 11 -3 225.58 19.4
-1 -11 3 131.39 12.9
1 -11 -3 121.89 15.7
1 -11 -3 125.19 11.6
1 11 -3 147.79 13.4
-1 11 3 154.38 16.2
-1 11 3 123.59 14.2
1 11 -3 144.49 12.1
-1 11 3 141.79 13.4
1 11 -3 134.09 14.6
-1 11 3 150.98 17.2
0 -11 3 833.42 39.9
0 -11 -3 790.42 40.5
0 -11 3 815.42 37.2
0 -11 -3 798.22 38.7
0 11 3 771.02 38.6
0 11 3 791.92 40.8
0 11 -3 790.72 37.7
0 11 -3 804.92 37.4
0 11 -3 834.32 37.1
0 11 3 791.82 38.6
0 11 3 811.62 39.4
-1 -11 -3 903.61 41.9
-1 -11 -3 838.72 41.3
-1 -11 -3 848.72 44.9
1 -11 3 915.61 41.7
1 -11 3 864.31 44.7
1 -11 3 923.81 40
1 -11 3 888.51 42.3
1 11 3 867.31 43.1
-1 11 -3 871.51 40.5
-1 11 -3 854.71 39.7
1 11 3 856.01 42.2
1 11 3 848.52 41.9
2 -11 3 78.89 10.2
2 -11 3 82.59 12.4
2 -11 3 73.39 16.2
-2 -11 -3 70.19 10.7
-2 -11 -3 82.49 15.7
-2 -11 -3 67.39 9.7
2 11 3 66.39 12.1
-2 11 -3 78.19 9.9
2 11 3 46.8 12
-2 11 -3 73.89 8.8
2 11 3 77.39 11.7
3 -11 3 366.36 27.2
-3 -11 -3 350.36 26.5
-3 -11 -3 398.26 26.2
3 -11 3 376.36 27.7
3 11 3 412.56 26.5
-3 11 -3 405.86 26.2
-4 -11 -3 161.08 21.1
-4 -11 -3 137.79 20.2
4 -11 3 186.88 22.5
-4 11 -3 227.78 21.9
-4 -12 3 25.8 12.3
4 -12 -3 19.9 13.4
-4 -12 3 29.5 16.2
-4 12 3 23.9 17.5
3 -12 -3 44.1 11
-3 -12 3 42.8 10.6
-3 -12 3 57.49 13.5
-3 12 3 71.79 13.8
-2 -12 3 34.5 9.3
2 -12 -3 17.3 12.2
2 -12 -3 35.8 8.4
-2 -12 3 41.3 7.9
2 12 -3 23.2 9.6
2 12 -3 29.7 11.9
-2 12 3 40.9 12.7
-2 12 3 30.3 14.7
-2 12 3 38.7 9.8
1 -12 -3 31.9 12
-1 -12 3 11.8 8.7
1 -12 -3 -1.6 6.3
1 -12 -3 -12.1 7.4
-1 -12 3 -3.8 6.6
-1 12 3 3.8 8.3
1 12 -3 -2.4 6.6
1 12 -3 -3.9 8.5
1 12 -3 1.2 7.9
-1 12 3 -4.6 7.9
-1 12 3 1.3 10.9
-1 12 3 -9.2 9.2
0 -12 3 15.3 6.9
0 -12 -3 -8.8 10
0 -12 3 18.7 11.7
0 -12 -3 21.9 8.3
0 -12 3 8.2 7.1
0 12 3 0.8 8.9
0 12 -3 19.2 6.5
0 12 -3 19.8 8.2
0 12 3 12.3 10.3
0 12 -3 24.1 7
0 12 3 28.8 7.8
0 12 3 14.2 8.7
1 -12 3 134.99 16.7
-1 -12 -3 118.69 12.7
-1 -12 -3 118.49 14.4
1 -12 3 120.49 12.6
1 -12 3 124.99 14.2
1 -12 3 131.39 15.9
-1 12 -3 116.19 13.6
-1 12 -3 142.69 12.8
1 12 3 134.19 17.4
1 12 3 143.19 16.1
1 12 3 141.99 16
1 12 3 115.79 14.1
2 -12 3 5.3 10.4
-2 -12 -3 -5.2 8.9
-2 -12 -3 -7.6 9.5
2 -12 3 -3.1 8.7
-2 -12 -3 -13.2 8.2
-2 -12 -3 21.6 15.9
2 12 3 9.9 10.3
-2 12 -3 10.3 8
-2 12 -3 2.6 8.2
-3 -12 -3 14 12.1
3 -12 3 15.3 13.5
-3 -12 -3 13.1 11.2
3 -12 3 -8.2 10.9
3 12 3 17.5 11.5
-3 12 -3 11.6 15.3
-3 12 -3 19.2 10.2
4 -12 3 9 17
-4 -12 -3 -11 13.1
-4 -12 -3 -12.4 16.6
-4 12 -3 -2.4 14.5
4 -13 -3 152.18 20.6
-4 -13 3 192.68 22.4
-4 -13 3 125.49 17.5
-4 13 3 207.68 24.6
-3 -13 3 105.59 14.2
-3 -13 3 104.49 15.9
3 -13 -3 104.39 14.2
-3 13 3 108.79 17.5
-2 -13 3 628.64 34.1
2 -13 -3 568.44 33
2 -13 -3 773.52 51.49
-2 -13 3 628.94 32.8
-2 13 3 646.64 40.5
-2 13 3 630.14 35.4
1 -13 -3 221.98 25.1
-1 -13 3 251.57 18.7
-1 -13 3 265.97 20.7
1 -13 -3 264.67 19.6
1 -13 -3 224.58 18.1
-1 13 3 226.58 19.4
-1 13 3 239.58 22.1
1 13 -3 252.17 18.1
-1 13 3 233.68 25.4
1 13 -3 262.37 18.3
1 13 -3 220.48 21.2
-1 13 3 253.27 20.8
0 -13 3 602.84 37.4
0 -13 -3 665.93 38.4
0 -13 3 704.93 33.9
0 -13 -3 681.23 34.8
0 -13 3 687.53 35
0 13 -3 643.54 33.8
0 13 3 649.54 36.3
0 13 3 728.03 36.6
0 13 -3 683.63 34.5
0 13 -3 696.63 33.6
0 13 3 647.94 35.6
0 13 3 718.73 39.2
1 -13 3 424.36 26.1
-1 -13 -3 431.46 26.3
-1 -13 -3 424.66 28.4
1 -13 3 449.56 24.2
1 -13 3 425.36 27.5
1 -13 3 395.56 30.4
1 13 3 454.65 30
-1 13 -3 436.56 24.2
1 13 3 432.56 27.4
-1 13 -3 432.86 24.7
-1 13 -3 406.86 24.5
1 13 3 411.16 28.4
2 -13 3 172.48 18.3
-2 -13 -3 152.28 17.1
2 -13 3 169.88 18.8
-2 -13 -3 164.88 18.4
-2 -13 -3 171.78 20
-2 13 -3 143.59 17.6
-2 13 -3 186.68 17.2
2 13 3 169.48 22.8
3 -13 3 193.18 25.4
-3 -13 -3 211.58 26
3 -13 3 189.58 22.1
-3 -13 -3 196.78 23.4
3 13 3 220.78 25
-3 13 -3 193.38 21.5
-3 13 -3 225.08 21.9
4 -13 3 210.98 26.2
-4 -13 -3 157.08 22.4
-4 -13 -3 187.78 25.4
-4 13 -3 201.78 23.8
4 -14 -3 11.3 17.8
-4 -14 3 -6 18.5
-4 -14 3 2.1 14.5
-4 14 3 -2.1 20.1
3 -14 -3 14.8 11.7
-3 -14 3 -0.6 13.7
-3 -14 3 2.8 11.4
-2 -14 3 -4.4 10.3
2 -14 -3 -14.2 9
2 14 -3 -9 9.9
-2 14 3 2.7 10.6
-2 14 3 -0.9 16.6
-1 -14 3 72.69 11.1
1 -14 -3 52.09 9.7
1 -14 -3 63.19 11.7
-1 14 3 56.69 16.3
1 14 -3 72.19 10.8
-1 14 3 49.5 11.7
1 14 -3 37.2 13.8
0 -14 3 74.69 12.5
0 -14 -3 50.89 15.9
0 -14 3 78.09 11.1
0 -14 -3 52.39 12.2
0 -14 3 47.6 14.2
0 14 -3 60.59 12.5
0 14 -3 70.29 10.7
0 14 -3 84.79 12.7
0 14 3 68.19 12.7
0 14 3 66.29 15.3
-1 -14 -3 57.69 12.1
1 -14 3 75.99 11.5
1 -14 3 78.29 11.7
-1 -14 -3 47.6 14.3
1 -14 3 45.4 17.5
1 14 3 70.69 13.4
-1 14 -3 47.3 11.5
1 14 3 79.09 15.5
-1 14 -3 88.69 12.1
-2 -14 -3 12.2 13.6
2 -14 3 -17.4 11.6
-2 -14 -3 0.6 11.2
2 -14 3 20.1 14.1
-2 -14 -3 27.9 11
-2 14 -3 12.3 10.1
-2 14 -3 -12.5 10.4
2 14 3 22.2 14.4
3 -14 3 1.3 13.3
3 -14 3 -13.8 18.5
-3 -14 -3 -9.6 15.2
-3 -14 -3 -3.2 13.6
-3 14 -3 -2.1 11.9
-3 14 -3 -21.6 12.6
3 14 3 7.5 16.2
4 -14 3 -16.7 19
-4 -14 -3 -35.4 19.7
-4 -14 -3 -16.4 15.7
4 -15 -3 180.58 24.6
3 -15 -3 127.49 17.2
-3 -15 3 125.89 16.2
-3 -15 3 112.39 18.9
-3 15 3 104.59 20.7
2 -15 -3 454.45 30.2
-2 15 3 500.65 34
-2 15 3 518.55 41.3
2 15 -3 511.45 30.8
-1 -15 3 431.26 30.2
-1 -15 3 392.26 26.4
1 -15 -3 403.16 25.9
-1 15 3 429.06 29.9
-1 15 3 387.16 34.1
1 15 -3 394.96 24.9
0 -15 -3 83.29 14.2
0 -15 3 119.39 15.3
0 -15 3 110.49 13.6
0 -15 3 88.29 17.3
0 15 3 102.59 14.1
0 15 -3 94.99 14.4
0 15 -3 132.49 15.9
0 15 3 121.09 19.2
-1 -15 -3 215.78 27.5
1 -15 3 245.58 20.7
1 -15 3 256.47 23.5
-1 -15 -3 251.67 23.9
-1 15 -3 265.37 20
1 15 3 251.37 24.6
-1 15 -3 253.47 23.8
1 15 3 255.87 27.3
-2 -15 -3 214.38 23.3
-2 -15 -3 223.78 25.1
-2 -15 -3 190.88 24
2 -15 3 234.38 24.9
2 -15 3 242.78 29.4
-2 15 -3 230.68 22.7
2 15 3 235.88 27.2
-2 15 -3 223.38 23.1
3 -15 3 102.89 19.1
-3 -15 -3 108.29 20.2
-3 -15 -3 96.19 18.1
3 15 3 111.39 20.5
-3 15 -3 140.39 19
-3 -16 3 7.5 13.4
3 -16 -3 6.1 22.5
-3 -16 3 13.7 16.8
3 16 -3 6.2 17.4
-3 16 3 -23.8 19.6
2 -16 -3 -2.7 13.1
-2 -16 3 2.7 13.9
-2 16 3 2.2 16.7
2 16 -3 11.3 12.5
1 -16 -3 13.6 10.9
-1 -16 3 8.9 11.8
-1 -16 3 -38.9 14.9
-1 16 3 -1.6 13.5
1 16 -3 18.2 10.6
0 -16 3 26.9 11.7
0 -16 3 26.9 18.1
0 -16 -3 35.9 17.9
0 16 3 36.9 14.2
0 16 3 25.4 18.3
0 16 -3 38.1 11.3
1 -16 3 29.9 11.8
-1 -16 -3 40.7 14.2
1 -16 3 30.1 14.7
1 16 3 26.3 16.8
1 16 3 33.2 14
-1 16 -3 7 14.8
-1 16 -3 13.1 11.1
2 -16 3 5.7 14.8
-2 -16 -3 1.9 15.1
2 -16 3 21.7 19.6
2 16 3 -4 16.6
-2 16 -3 -26.6 12.5
-2 16 -3 -16.9 13.3
2 16 3 5.3 16.8
-3 -16 -3 17.9 18.9
3 -16 3 27.8 17.6
-3 -16 -3 17.3 16
3 16 3 -10.8 19.5
-3 16 -3 24.4 16.1
3 -17 -3 161.98 23.5
-3 -17 3 131.69 20.8
-3 17 3 171.38 27.6
3 17 -3 110.89 23.1
-2 -17 3 121.39 19.4
2 -17 -3 86.39 17.8
2 17 -3 114.89 17.5
-2 17 3 95.19 20.2
1 -17 -3 290.87 25.9
-1 -17 3 281.07 32.7
-1 -17 3 246.78 25.6
-1 17 3 257.17 30.4
-1 17 3 307.67 30.7
1 17 -3 296.97 24.5
0 -17 -3 190.48 20.8
0 -17 3 213.38 23.9
0 -17 3 235.08 26.1
0 -17 -3 222.98 23.9
0 17 -3 259.27 23
0 17 3 217.28 32.2
0 17 3 241.58 28.5
1 -17 3 220.18 24.1
-1 -17 -3 204.48 22
1 -17 3 194.08 22.1
-1 17 -3 221.58 20.8
1 17 3 193.38 22.8
1 17 3 206.48 26.1
-2 -17 -3 285.37 32.4
2 -17 3 288.87 32.8
2 17 3 353.56 45.2
2 17 3 347.07 35.7
-2 17 -3 333.47 28.8
-3 -17 -3 146.69 22.5
3 -17 3 118.09 23.3
-3 17 -3 168.68 23.3
2 -18 -3 -1.1 16.6
-2 -18 3 25.4 18.1
2 18 -3 -1.8 17.1
-2 18 3 10.8 19.3
-1 -18 3 -69.49 27.7
-1 -18 3 17.3 14.3
1 18 -3 10.1 14.2
-1 18 3 -8.7 24.7
-1 18 3 14.7 17.9
0 -18 -3 1.6 16
0 -18 -3 -23.1 17
0 -18 3 -20.2 14.4
0 -18 3 -3.2 15.1
0 18 3 -8.9 23
0 18 -3 2.3 14.4
0 18 3 -6.6 18.5
1 -18 3 28.7 15.2
1 -18 3 4.5 16.4
-1 -18 -3 38.4 17.2
-1 18 -3 48.2 16
2 -18 3 26.5 21.4
-2 -18 -3 53.69 19.6
2 18 3 39.9 21.2
-2 18 -3 21.6 16.7
2 18 3 22.2 24
1 -19 -3 264.47 32.1
-1 -19 3 311.07 31.6
1 19 -3 246.58 31.4
-1 19 3 307.77 39.1
0 -19 -3 73.59 20.5
0 -19 3 94.29 19
0 -19 3 114.79 22.1
0 -19 -3 101.49 21.1
0 19 -3 86.09 18.3
0 19 3 96.99 29.9
0 19 3 111.69 23.5
-1 -19 -3 122.19 20.7
1 -19 3 116.09 20.8
1 -19 3 135.89 23.6
1 19 3 100.49 28.5
1 19 3 124.39 24.5
-1 19 -3 139.39 20.8
-5 0 4 293.57 26.1
-4 0 4 254.97 18.2
-4 0 4 250.37 21.7
4 0 -4 223.28 20.7
3 0 -4 995.9 44.1
-3 0 4 954.2 43.6
-3 0 4 955.2 44.3
-2 0 4 487.55 23.6
2 0 -4 519.45 23.4
-2 0 4 495.45 23.1
-2 0 4 484.65 23.4
1 0 -4 460.25 20.4
1 0 -4 461.95 21.1
-1 0 4 474.65 21.5
0 0 4 24.7 3.7
0 0 4 23.3 2.6
0 0 -4 28.6 2.6
-1 0 -4 1332.57 57.19
1 0 4 1288.97 57.09
1 0 4 1341.67 57.79
-1 0 -4 1458.45 57.69
2 0 4 1564.94 65.99
2 0 4 1478.05 66.79
-2 0 -4 1545.75 65.79
-2 0 -4 1543.85 66.59
3 0 4 1153.58 54.19
-3 0 -4 1141.49 53.59
3 0 4 1147.69 52.69
-3 0 -4 1179.78 52.29
-4 0 -4 65.59 8.9
4 0 4 54.09 12.7
-4 0 -4 76.59 12.1
4 0 4 77.09 13.7
-5 0 -4 265.37 22.9
5 0 4 272.17 32.3
-5 -1 4 68.79 14.9
-5 1 4 85.79 16.6
-5 1 4 103.79 20.5
-4 -1 4 155.28 16.7
-4 -1 4 164.58 19.2
4 -1 -4 138.89 18.3
4 -1 -4 183.68 19.4
-4 -1 4 149.09 15.7
-4 1 4 136.49 15.7
4 1 -4 154.28 17.6
-4 1 4 132.29 17.9
-2 -1 4 24.9 5.4
-2 -1 4 16.8 4.3
2 -1 -4 32.1 5.1
2 -1 -4 15.1 5.5
-2 1 4 21.8 4.4
2 1 -4 23.5 5.4
1 -1 -4 235.38 12.2
1 -1 -4 228.58 11.4
-1 -1 4 218.38 11.6
-1 1 4 266.97 12.9
1 1 -4 225.28 11.4
-1 1 4 223.08 11.4
0 -1 -4 465.85 20.4
0 -1 4 449.76 19.2
0 -1 -4 397.56 19.1
0 1 4 406.66 19.1
0 1 4 435.76 21.8
0 1 -4 462.35 19.2
1 -1 4 96.59 7.6
1 -1 4 84.19 6.2
-1 -1 -4 80.19 6.6
-1 -1 -4 97.79 7.2
-1 1 -4 90.39 6.2
-1 1 -4 98.89 7.1
1 1 4 84.19 6.5
1 1 4 92.69 7.9
1 1 4 93.09 7.3
-2 -1 -4 13.7 5.5
2 -1 4 10.4 4.4
-2 -1 -4 18 4.3
2 -1 4 5.3 4.6
2 1 4 18.3 5.5
-2 1 -4 1.1 3.8
2 1 4 13.9 4.7
-2 1 -4 17.6 5.2
3 -1 4 55.19 10.1
-3 1 -4 32.6 8.4
4 -1 4 58.49 12.2
-4 -1 -4 19.8 7.7
-4 -1 -4 26.7 9.2
4 1 4 21.5 11.7
4 1 4 46.8 12.6
-5 -1 -4 -10.5 10.6
5 -1 4 8 16.2
-5 -1 -4 35.5 19.3
5 1 4 20.7 18.2
-5 1 -4 -4.7 18.1
5 -2 -4 243.98 25.2
5 -2 -4 277.07 28.6
-5 -2 4 240.18 23.3
-5 -2 4 263.87 29.4
-5 2 4 249.38 24.8
-4 -2 4 167.98 15.1
4 -2 -4 148.19 18.6
4 -2 -4 192.18 21
-4 -2 4 167.58 17.2
-4 -2 4 147.79 19.6
-4 2 4 135.89 15.7
4 2 -4 164.08 17.6
-4 2 4 139.09 17.7
3 -2 -4 955 43.1
-3 -2 4 941.91 42.8
3 -2 -4 830.92 43.2
3 -2 -4 917.71 42.8
-3 -2 4 936.11 42.1
-3 -2 4 966.5 43.8
-3 2 4 931.51 42.2
-3 2 4 935.41 42.5
3 2 -4 942.01 42.2
-2 -2 4 2165.08 90.89
2 -2 -4 2229.08 92.09
2 -2 -4 2173.38 91.59
-2 -2 4 2221.38 92.29
-2 2 4 2117.79 90.69
-2 2 4 2133.69 91.39
-2 2 4 2150.28 92.39
1 -2 -4 678.73 30.2
1 -2 -4 716.43 31.1
-1 2 4 705.63 31.5
-1 2 4 651.23 30.1
0 -2 4 393.66 16.3
0 -2 -4 322.17 16.1
0 -2 -4 340.97 17.2
0 2 4 316.07 16.2
0 2 4 344.77 16.3
0 2 4 413.16 17.8
-1 -2 -4 2674.63 116.09
1 -2 4 2903.31 116.59
-1 -2 -4 2867.81 116.39
-1 -2 -4 2746.13 115.49
1 -2 4 2737.23 115.59
1 2 4 2647.64 116.79
-1 2 -4 3009.5 116.59
1 2 4 2644.74 116.09
1 2 4 2863.11 116.79
-1 2 -4 2876.11 115.69
1 2 4 2731.53 115.39
-2 -2 -4 29.1 5
-2 -2 -4 32.8 5.6
2 -2 4 31.2 5.8
-2 -2 -4 30 6.3
2 -2 4 33.3 5.6
-2 2 -4 43.6 6
2 2 4 33.3 5.5
2 2 4 30.2 6.8
2 2 4 37.7 4.8
-2 2 -4 42.9 6.4
2 2 4 25.7 5.7
-3 -2 -4 379.86 20.6
3 -2 4 335.07 21.2
-3 -2 -4 352.16 23
-3 -2 -4 342.27 18.3
3 -2 4 355.16 22.2
3 2 4 302.37 28.5
-3 2 -4 345.07 20.2
3 2 4 379.86 23.5
-3 2 -4 350.96 21.9
4 -2 4 392.86 28.3
4 -2 4 379.26 27.9
-4 -2 -4 395.96 25.4
-4 -2 -4 421.16 22.3
4 2 4 361.46 29.2
-4 2 -4 414.36 26.3
4 2 4 368.46 28.2
-5 -2 -4 105.59 13.7
-5 -2 -4 124.29 19.9
5 -2 4 137.59 23.8
5 2 4 86.69 21.3
5 2 4 148.49 17.9
-5 2 -4 118.09 22.5
-5 -3 4 -8.5 14.8
5 -3 -4 -4.2 14.3
5 -3 -4 10.7 20.8
-5 -3 4 7.4 11.2
-5 3 4 27.6 13.6
-4 -3 4 40.7 12.2
4 -3 -4 34.2 16.1
4 -3 -4 30.9 10
-4 -3 4 25 9.9
-4 -3 4 30.8 8
-4 3 4 32.6 10.3
-4 3 4 41.3 9.4
4 3 -4 35.4 16.8
3 -3 -4 14.6 6
3 -3 -4 26.7 7.8
3 -3 -4 21.8 8.6
-3 3 4 20 5.9
-3 3 4 4.6 5.2
2 -3 -4 79.09 8.3
-2 -3 4 83.49 6.9
-2 -3 4 73.19 8.4
2 -3 -4 81.49 9.6
-2 -3 4 100.39 9.7
2 3 -4 70.99 6.9
-2 3 4 80.99 10.2
-2 3 4 73.29 6.6
-2 3 4 80.39 7.7
-1 -3 4 571.94 26
1 -3 -4 583.24 26.3
1 -3 -4 603.14 27.2
-1 3 4 569.44 27.1
-1 3 4 559.84 26
0 -3 4 102.89 5.6
0 -3 -4 89.59 6.6
0 -3 -4 92.19 7.2
0 3 4 92.69 6.4
0 3 4 99.99 7.9
0 3 4 91.69 6.6
-1 -3 -4 852.81 36.6
-1 -3 -4 836.32 37.2
-1 -3 -4 835.92 37.5
-1 -3 -4 809.12 37.2
1 -3 4 856.51 36.3
1 -3 4 824.72 37.2
1 3 4 830.12 37
1 3 4 818.12 36.3
1 3 4 853.61 37.7
-1 3 -4 857.11 36.2
1 3 4 811.42 37.5
-1 3 -4 900.21 37.4
-2 -3 -4 123.79 9.4
-2 -3 -4 119.99 8.2
-2 -3 -4 105.19 11.3
2 -3 4 114.69 10.3
2 -3 4 112.59 9.5
2 3 4 104.69 8.7
-2 3 -4 102.49 9.3
2 3 4 107.49 9.9
2 3 4 104.29 10
2 3 4 109.39 11.4
-2 3 -4 103.99 10.3
3 -3 4 12.5 7.2
-3 -3 -4 5.3 8.7
-3 -3 -4 19.5 5.3
-3 -3 -4 15.8 6.5
3 -3 4 14.8 7.2
3 3 4 -3.3 7.6
-3 3 -4 -6.2 7.3
3 3 4 7.1 6.3
-3 3 -4 -5.6 6.2
3 3 4 6.9 5.8
3 3 4 -3.5 7.4
-4 -3 -4 12.4 7.9
4 -3 4 6.8 11.1
-4 -3 -4 17.2 9.2
4 -3 4 17.1 10.9
4 3 4 11.3 12.4
-4 3 -4 12.6 8.9
4 3 4 25 12.1
4 3 4 26.5 9.9
-5 -3 -4 25.8 16.5
-5 -3 -4 -15.4 11.9
5 -3 4 19 16.3
5 3 4 1.7 18.1
5 3 4 -5.3 14
-5 3 -4 21 19.1
5 -4 -4 75.59 24.7
-5 -4 4 79.89 14.4
5 -4 -4 99.89 17.4
-5 -4 4 54.49 16.1
-5 4 4 69.49 16.6
-4 -4 4 133.09 14.4
4 -4 -4 155.98 18.3
-4 -4 4 120.49 14.5
4 -4 -4 133.59 15.4
-4 -4 4 133.09 16.4
-4 4 4 136.89 16.3
-4 4 4 122.29 14.5
-3 -4 4 215.08 17.1
3 -4 -4 241.58 20.2
-3 -4 4 229.18 14.8
3 -4 -4 273.07 17.5
-3 -4 4 271.77 22.9
3 -4 -4 260.67 15.9
-3 4 4 259.47 16.5
-3 4 4 253.47 15.7
3 4 -4 230.08 15.9
2 -4 -4 392.56 20.4
2 -4 -4 378.36 19.1
-2 -4 4 382.86 20.1
2 -4 -4 419.66 21.8
-2 -4 4 390.46 18.6
2 4 -4 395.06 18.7
-2 4 4 388.76 18.5
-2 4 4 391.66 19.9
-2 4 4 386.66 22
1 -4 -4 2683.53 109.89
-1 -4 4 2562.24 109.19
1 -4 -4 2647.24 110.69
-1 4 4 2594.74 110.89
-1 4 4 2602.44 109.79
0 -4 4 1853.91 74.19
0 -4 -4 1712.23 74.99
0 -4 -4 1646.94 73.69
0 4 4 1736.63 73.89
0 4 4 1762.32 74.09
0 4 4 1816.82 75.39
-1 -4 -4 2401.76 101.09
-1 -4 -4 2441.46 100.69
-1 -4 -4 2357.86 101.59
1 -4 4 2343.87 101.39
1 -4 4 2486.35 100.39
-1 -4 -4 2372.46 101.29
1 4 4 2371.56 101.89
-1 4 -4 2386.36 100.19
1 4 4 2452.15 101.29
-1 4 -4 2442.56 101.39
1 4 4 2436.86 100.59
2 -4 4 1257.97 54.79
-2 -4 -4 1268.27 55.39
2 -4 4 1274.77 56.09
-2 -4 -4 1243.68 56.29
-2 -4 -4 1221.68 54.09
2 4 4 1189.88 56.59
-2 4 -4 1259.77 55.79
2 4 4 1282.17 55.59
2 4 4 1292.77 55.59
-2 4 -4 1284.67 54.89
3 -4 4 138.39 14.7
3 -4 4 128.39 13.8
-3 -4 -4 135.39 11.7
-3 -4 -4 138.49 13.7
-3 -4 -4 134.29 15
3 4 4 120.09 15.1
-3 4 -4 151.58 13.3
3 4 4 141.69 12.8
3 4 4 140.79 16.6
3 4 4 126.49 12.4
-3 4 -4 127.09 15.4
4 -4 4 112.39 16.4
-4 -4 -4 118.39 14.5
-4 -4 -4 128.69 16.3
4 -4 4 169.18 20.8
4 4 4 108.39 17.5
-4 4 -4 130.19 15.2
4 4 4 136.79 15.4
-5 -4 -4 113.89 15.4
5 -4 4 116.89 22.5
-5 -4 -4 143.19 19.4
-5 4 -4 140.29 25.2
5 4 4 144.59 17.8
5 -5 -4 -20 14.3
-5 -5 4 -0.8 15
-5 -5 4 -4.3 11.6
-5 5 4 -4.9 13.5
4 -5 -4 9.6 10.4
4 -5 -4 5.2 14.2
-4 -5 4 10.3 9.7
-4 -5 4 29.4 13.1
-4 -5 4 15.7 7.8
-4 5 4 3 9.8
-4 5 4 23.7 9.1
3 -5 -4 -2.8 5.2
3 -5 -4 4.8 7.1
-3 -5 4 1.8 6.5
-3 -5 4 3.9 5.2
-3 -5 4 -18 9.4
-3 5 4 3.7 6
-3 5 4 5.6 6.5
-3 5 4 6.1 8.8
3 5 -4 0.9 6.5
2 -5 -4 61.29 9.3
2 -5 -4 62.69 8.1
-2 -5 4 52.09 6.1
2 -5 -4 56.29 7.6
-2 -5 4 58.89 7
2 5 -4 51.19 5.6
-2 5 4 67.39 8.2
-2 5 4 56.39 6
-2 5 4 56.59 9.3
1 -5 -4 90.49 8.1
-1 -5 4 61.49 7
1 -5 -4 78.79 9.1
-1 5 4 84.29 9.4
-1 5 4 75.49 7.5
-1 5 4 83.49 8.3
0 -5 4 0.5 2.8
0 -5 4 0.4 2.6
0 -5 -4 -4.9 3.1
0 -5 -4 -6.1 3.5
0 5 4 6.9 3.5
0 5 4 -0.5 3.1
0 5 4 2.8 3.6
0 5 4 2 3.9
0 5 -4 2.3 2.3
-1 -5 -4 19.9 4.3
-1 -5 -4 20.3 5.3
1 -5 4 26.3 4.2
-1 -5 -4 26.2 4.1
1 -5 4 19.7 4.9
-1 5 -4 18.7 4.3
1 5 4 20.1 4.6
1 5 4 31.4 4.8
-1 5 -4 25.6 3.7
1 5 4 24 5.4
-2 -5 -4 20.5 5.7
-2 -5 -4 23.5 5.4
2 -5 4 25.5 5.7
-2 -5 -4 9.8 7.2
2 -5 4 23.9 5.2
-2 5 -4 19.1 5.2
-2 5 -4 14.9 5.9
2 5 4 23 6.3
2 5 4 20.2 5.8
2 5 4 17.3 5.1
3 -5 4 41.8 8.8
-3 -5 -4 40 11.3
3 -5 4 32.2 10.2
-3 -5 -4 58.69 7.6
-3 -5 -4 49.6 9.1
3 5 4 61.89 13.5
3 5 4 44.2 7.4
-3 5 -4 50.19 10
3 5 4 48.6 10.4
-3 5 -4 39.9 8.4
4 -5 4 2.3 12.1
-4 -5 -4 18.8 9.6
4 -5 4 0.1 10.8
-4 -5 -4 2.5 10.1
4 5 4 9.3 11
-4 5 -4 -8.5 10
-5 -5 -4 14.5 15.6
5 -5 4 7.9 18.8
-5 -5 -4 3.1 13.2
-5 5 -4 -8 30
5 5 4 7.4 14.1
5 -6 -4 77.39 16.6
-5 -6 4 45.9 16.8
-5 -6 4 72.99 14
-5 6 4 81.69 17.7
4 -6 -4 423.06 35.4
-4 -6 4 438.96 25.4
-4 -6 4 450.15 28.4
4 -6 -4 436.76 27.6
-4 6 4 429.56 27.4
-4 6 4 483.25 27.8
-3 -6 4 362.46 24.7
3 -6 -4 319.87 22
-3 -6 4 340.97 20.6
3 -6 -4 338.17 19.8
-3 -6 4 318.87 18.8
3 -6 -4 357.16 25.9
3 6 -4 311.27 19.2
-3 6 4 340.07 20.8
-3 6 4 339.67 24.6
-3 6 4 348.67 19.1
2 -6 -4 604.04 28.5
2 -6 -4 654.13 32.5
-2 -6 4 652.73 28.5
-2 -6 4 613.74 29.6
2 -6 -4 659.03 32.4
-2 6 4 628.64 32.4
-2 6 4 564.24 27.8
2 6 -4 625.64 28.3
-2 6 4 620.24 30.2
1 -6 -4 1890.31 80.09
-1 -6 4 1843.32 78.69
1 -6 -4 1801.32 80.59
-1 -6 4 2003.4 77.79
-1 6 4 1815.92 81.19
-1 6 4 1801.02 79.09
0 -6 -4 1659.63 75.79
0 -6 4 1752.52 74.99
0 -6 4 1855.61 73.69
0 -6 -4 1684.43 74.69
0 6 4 1794.72 74.79
0 6 4 1685.63 76.29
0 6 4 1776.92 74.99
0 6 -4 1890.71 73.69
0 6 4 1743.83 75.59
0 6 -4 1710.03 73.19
-1 -6 -4 280.67 16.2
1 -6 4 281.67 14.6
-1 -6 -4 263.87 15.3
-1 -6 -4 275.07 15.3
1 -6 4 273.57 15.6
-1 -6 -4 287.37 16.7
-1 6 -4 271.27 14.1
-1 6 -4 268.37 15.7
1 6 4 304.67 17.3
1 6 4 287.17 15.5
1 6 4 275.87 16
2 -6 4 485.65 24.8
-2 -6 -4 480.65 27
-2 -6 -4 495.35 25.2
2 -6 4 499.65 26.1
-2 -6 -4 515.25 24.7
-2 6 -4 464.85 24.4
2 6 4 505.55 25.8
-2 6 -4 495.25 25.7
2 6 4 543.95 26
2 6 4 485.05 24.7
3 -6 4 378.46 23
3 -6 4 377.16 23.6
-3 -6 -4 374.16 22.8
-3 -6 -4 334.47 26.4
-3 -6 -4 366.06 21.5
-3 6 -4 343.07 23.7
-3 6 -4 383.06 22
3 6 4 391.16 22.7
3 6 4 354.06 23.4
3 6 4 420.46 22.3
-4 -6 -4 105.39 12.6
4 -6 4 90.19 15.1
-4 -6 -4 94.29 14.9
4 -6 4 105.59 15.8
-4 6 -4 78.39 13.9
4 6 4 95.79 14.4
5 -6 4 60.89 20.5
-5 -6 -4 57.89 18.2
-5 -6 -4 87.09 16.9
5 6 4 83.09 16.9
-5 -7 4 -5 16.2
5 -7 -4 -12.8 14.6
-5 -7 4 -0.1 12.5
-5 7 4 7.9 15.7
4 -7 -4 27.3 10.6
-4 -7 4 19.6 8.2
-4 -7 4 29 11.4
4 -7 -4 13.9 17.5
-4 7 4 20.8 9.3
-4 7 4 19.3 10.5
3 -7 -4 5.4 6.5
3 -7 -4 34.9 12.3
-3 -7 4 -3.3 10.4
-3 -7 4 12.2 5.9
-3 -7 4 11.6 7.5
3 -7 -4 8.2 8.8
-3 7 4 18.3 7.7
-3 7 4 0.4 6.1
3 7 -4 27.9 7.6
-3 7 4 15 9.7
2 -7 -4 0.2 3.8
-2 -7 4 -1.1 5.1
-2 -7 4 -0.1 4
2 -7 -4 -1 6.2
2 -7 -4 0.5 9.7
-2 7 4 -9.7 5.9
2 7 -4 1.4 4.4
-2 7 4 8.7 5.8
-2 7 4 5.2 7.6
-1 -7 4 532.25 25.9
1 -7 -4 568.84 28
1 -7 -4 540.65 25.4
1 -7 -4 553.84 28.8
-1 -7 4 601.74 25
-1 7 4 551.14 26.9
1 7 -4 557.64 26.2
-1 7 4 531.85 28.7
-1 7 4 556.64 27.3
0 -7 -4 12.8 6
0 -7 4 24.2 4.2
0 -7 -4 26.8 5.6
0 -7 4 22.2 4.6
0 7 4 25.8 6.6
0 7 4 27.9 6.3
0 7 -4 29.2 4.4
0 7 -4 25.5 3.8
0 7 4 24.6 5.5
0 7 4 26.7 5.7
0 7 -4 24.9 4
-1 -7 -4 10 7.3
-1 -7 -4 2.7 4.4
-1 -7 -4 13.3 5.1
1 -7 4 7.7 4.1
-1 -7 -4 14.2 5.3
1 -7 4 16.4 4.9
1 7 4 12.2 5.6
-1 7 -4 7.5 4
1 7 4 8.1 5.2
1 7 4 0.6 4.8
2 -7 4 1.9 5.7
-2 -7 -4 2.3 4.9
-2 -7 -4 -0.5 4.7
-2 -7 -4 -2.1 10.3
2 -7 4 4 5.4
2 7 4 -7.3 6.3
-2 7 -4 -1 4
-2 7 -4 -4.1 6.1
2 7 4 -6 6
2 7 4 12.6 6.4
-3 -7 -4 3.5 7
-3 -7 -4 9.4 8.2
3 -7 4 9.4 9.1
-3 -7 -4 7.9 11
3 -7 4 3.3 7.3
3 7 4 21.9 7.9
-3 7 -4 -6.1 7.2
-3 7 -4 -12.5 8.7
3 7 4 15.4 9.8
3 7 4 12.9 8.4
4 -7 4 32.5 13.1
4 -7 4 29.9 14.7
-4 -7 -4 33.6 11.8
-4 -7 -4 27.4 13.5
4 7 4 43.5 18.3
-4 7 -4 52.49 11.5
4 7 4 48.2 12.2
-5 -7 -4 -27.3 24.2
5 -7 4 5.2 20.3
-5 -7 -4 26.3 18.4
5 7 4 -11.8 15.4
-5 7 -4 -30.5 18.5
-5 -8 4 187.68 24.6
-5 -8 4 250.27 31.8
5 -8 -4 244.18 29.3
-5 8 4 171.68 23.8
-4 -8 4 259.17 20.7
-4 -8 4 315.77 24.3
4 -8 -4 285.27 22.6
-4 8 4 279.97 24.6
-4 8 4 256.27 22.4
3 -8 -4 117.49 12.6
3 -8 -4 120.19 18.1
3 -8 -4 139.69 15.5
-3 -8 4 132.79 14.8
-3 -8 4 131.99 17.1
-3 -8 4 118.49 12.1
-3 8 4 116.99 13.8
-3 8 4 129.99 17.3
3 8 -4 117.19 13.9
-3 8 4 122.89 14.4
-3 8 4 100.79 12.1
2 -8 -4 315.57 20.1
2 -8 -4 324.27 23
-2 -8 4 302.97 18.3
-2 -8 4 315.87 16.8
2 -8 -4 281.57 16.6
-2 8 4 303.87 18.7
2 8 -4 323.27 19.6
-2 8 4 292.47 19.4
2 8 -4 295.57 18.1
-2 8 4 330.87 22.5
1 -8 -4 761.72 37
-1 -8 4 754.92 35
1 -8 -4 744.13 34.2
1 -8 -4 773.92 38
-1 8 4 760.62 35.9
-1 8 4 734.83 38.1
1 8 -4 800.82 34.6
1 8 -4 797.02 33.8
1 8 -4 779.92 35.2
-1 8 4 758.12 36.1
0 -8 -4 538.25 26.7
0 -8 -4 526.25 28.3
0 -8 4 546.35 25.4
0 -8 4 542.55 26.9
0 8 -4 576.74 25.1
0 8 4 557.24 28.8
0 8 4 568.94 27.2
0 8 -4 540.45 25.2
0 8 4 543.85 27.6
0 8 4 542.25 26.9
0 8 -4 560.64 25.4
1 -8 4 1069.69 44.1
1 -8 4 1033.2 45.2
1 -8 4 979 46.2
-1 -8 -4 1011.2 45.9
-1 -8 -4 992.8 46.1
-1 -8 -4 1001.3 46.8
1 8 4 1056.59 46.5
-1 8 -4 977.7 44.8
1 8 4 1043.2 46
1 8 4 1011.3 47.2
-2 -8 -4 326.07 18.6
-2 -8 -4 303.77 22.3
2 -8 4 295.07 19.9
2 -8 4 295.67 18.7
-2 -8 -4 329.07 19.6
-2 -8 -4 306.87 18.9
-2 8 -4 298.97 17.5
2 8 4 301.97 20.6
2 8 4 311.77 19.3
-2 8 -4 310.97 19.6
2 8 4 319.57 20.1
-3 -8 -4 305.27 21.1
-3 -8 -4 291.97 27
-3 -8 -4 306.27 20.7
3 -8 4 269.17 21.9
3 8 4 296.17 22.7
3 8 4 330.47 21.3
3 8 4 290.57 23.2
-3 8 -4 325.67 20.5
4 -8 4 235.78 27.4
-4 -8 -4 287.87 25
-4 -8 -4 271.87 26
4 8 4 270.17 25.1
-4 8 -4 306.97 24.3
5 -8 4 167.88 25.5
-5 -8 -4 136.89 22.4
-5 -8 -4 169.68 24.5
5 8 4 170.58 20.3
-5 8 -4 167.18 25.3
5 -9 -4 -9.1 18
-5 -9 4 -3.3 18
-5 -9 4 5.5 13.8
-5 9 4 3.7 18.1
-4 -9 4 9.9 14.1
-4 -9 4 4.4 9.4
4 -9 -4 9.5 10.6
-4 9 4 30.3 11.4
3 -9 -4 -1.9 12
-3 -9 4 11.7 7
3 -9 -4 -22.7 14.2
-3 -9 4 10.6 12.9
3 -9 -4 -7 6.8
-3 -9 4 6.8 8.3
-3 9 4 15.6 11.3
3 9 -4 3.3 8.5
-3 9 4 9.2 11
-3 9 4 23.8 9.6
2 -9 -4 -6.7 9.6
-2 -9 4 4.8 4.9
2 -9 -4 0.6 4.9
2 -9 -4 18.2 8.1
-2 -9 4 4.4 6.8
-2 9 4 10.8 10.3
-2 9 4 -0.2 7.4
-2 9 4 2 7.7
2 9 -4 7.1 5.3
2 9 -4 -4.7 7.3
-1 -9 4 32.7 6.5
1 -9 -4 40.3 5.8
1 -9 -4 25.4 8.8
1 9 -4 40.7 5.8
-1 9 4 25.2 6.5
-1 9 4 32.2 10.1
-1 9 4 28.1 6.4
1 9 -4 37.9 6
-1 9 4 35.9 7.8
1 9 -4 27.3 6.7
0 -9 -4 6.4 5.3
0 -9 4 13.5 6.6
0 -9 4 6.6 5.1
0 -9 -4 -1.1 6.7
0 -9 4 -2.6 4.6
0 9 4 8.9 6
0 9 4 -3.7 6.9
0 9 -4 4.3 3.8
0 9 4 2.2 6.5
0 9 -4 7.5 4.4
0 9 -4 9.2 4.9
0 9 4 2.5 5
-1 -9 -4 15.3 6.9
1 -9 4 16.3 5.7
1 -9 4 24.5 6.1
-1 -9 -4 12.3 6.9
-1 -9 -4 26.2 6.6
1 9 4 7.3 7
1 9 4 14.3 6.7
1 9 4 9.8 8.1
-1 9 -4 12.1 6.9
-1 9 -4 12.9 4.8
2 -9 4 26.3 11.9
-2 -9 -4 25.2 8.3
-2 -9 -4 11.3 7.3
2 -9 4 25.9 7.6
2 -9 4 29.5 9.5
-2 -9 -4 8.2 7
-2 -9 -4 26 11.6
-2 9 -4 11.3 6.5
2 9 4 19.3 7.9
-2 9 -4 21.4 7.6
2 9 4 16.7 8.8
2 9 4 29.6 9
3 -9 4 54.39 12.1
3 -9 4 46.7 11.5
-3 -9 -4 67.79 11
-3 -9 -4 47.3 9.8
3 9 4 67.69 12.4
3 9 4 43.9 12.6
-3 9 -4 68.79 11
4 -9 4 14.6 17.4
-4 -9 -4 -11 14.1
-4 -9 -4 7.1 13.3
4 -9 4 30 13.5
-4 9 -4 22.4 12.7
4 9 4 8.7 13.1
5 -9 4 14.8 20.3
-5 -9 -4 9.1 19.2
-5 -9 -4 -4.9 21.1
-5 9 -4 -24.5 20.2
-5 -10 4 130.39 19.1
5 -10 -4 169.28 24.3
-5 -10 4 140.99 20.9
-5 10 4 121.39 24
-4 -10 4 201.98 20.6
4 -10 -4 222.88 21.7
-4 -10 4 185.38 20.1
-4 10 4 179.58 22
-4 10 4 237.38 26.1
-3 -10 4 1111.29 50.89
-3 -10 4 1137.79 52.79
3 -10 -4 1068.99 51.29
3 10 -4 995.9 51.09
-3 10 4 1155.28 55.49
-3 10 4 1199.38 54.19
-3 10 4 1128.19 57.59
2 -10 -4 129.39 16.3
-2 -10 4 107.99 11.2
2 -10 -4 100.29 15.7
2 -10 -4 99.39 11.7
-2 -10 4 104.29 11
-2 10 4 84.49 12.3
-2 10 4 126.89 16.6
2 10 -4 112.79 13.2
2 10 -4 94.39 11.7
-2 10 4 104.69 12.6
-1 -10 4 507.75 26.2
-1 -10 4 498.05 26.4
1 -10 -4 496.55 30.1
1 -10 -4 499.65 25.3
1 10 -4 562.44 27.1
1 10 -4 551.54 25.8
-1 10 4 487.95 27.8
-1 10 4 524.45 27
-1 10 4 532.15 27.7
-1 10 4 540.45 30.9
0 -10 4 316.97 18.7
0 -10 4 307.07 17.5
0 -10 4 316.37 20.3
0 -10 -4 308.77 21.2
0 -10 -4 312.67 19
0 10 -4 310.47 17.3
0 10 -4 320.97 16.9
0 10 -4 311.67 17.7
0 10 4 325.07 19.9
0 10 4 304.17 21.6
0 10 4 301.97 19.7
0 10 4 286.97 19
-1 -10 -4 303.47 19.7
1 -10 4 311.17 16.6
1 -10 4 311.47 22.7
-1 -10 -4 285.27 18.6
1 -10 4 274.87 19.2
1 -10 4 311.37 18.5
-1 -10 -4 294.77 20.3
1 10 4 310.37 19.9
-1 10 -4 312.17 18.5
1 10 4 290.17 20
1 10 4 317.37 20.6
2 -10 4 82.29 15.6
-2 -10 -4 95.79 12.1
2 -10 4 101.79 11.4
-2 -10 -4 102.79 13.1
2 -10 4 74.79 11.2
-2 -10 -4 96.79 11.1
-2 -10 -4 79.09 14.7
-2 10 -4 87.89 9.9
2 10 4 97.99 12.4
2 10 4 104.99 13.5
2 10 4 87.69 13.2
3 -10 4 733.53 40.6
-3 -10 -4 750.12 39.5
-3 -10 -4 759.02 39.5
3 -10 4 720.03 40.1
-3 10 -4 789.02 39.1
3 10 4 790.62 39.7
4 -10 4 186.08 23.3
-4 -10 -4 155.48 28.7
-4 -10 -4 125.49 18.1
-4 10 -4 193.58 20.5
4 10 4 198.38 26.2
5 -10 4 74.09 24.9
4 -11 -4 4.5 12.7
-4 -11 4 22.1 14.6
-4 -11 4 14.7 11.5
-4 11 4 -0.8 14.2
3 -11 -4 69.09 11.5
-3 -11 4 67.69 11.9
-3 -11 4 61.79 10
-3 11 4 98.69 15.5
-2 -11 4 7.5 8.4
2 -11 -4 -3.2 6
2 -11 -4 -7.8 9.6
2 -11 -4 3.8 20.2
-2 -11 4 11.3 6.2
2 11 -4 18.7 10.1
-2 11 4 -1.5 9.6
-2 11 4 1.4 8.2
-2 11 4 -15.8 10.6
2 11 -4 9.2 7.5
1 -11 -4 2.3 10.6
-1 -11 4 3.1 6.5
1 -11 -4 -0.5 6
-1 11 4 7.6 8.9
1 11 -4 1 7.6
1 11 -4 7.5 6
-1 11 4 1.6 7.3
-1 11 4 12.4 11.2
1 11 -4 1.5 6.3
-1 11 4 -11 6.8
0 -11 -4 23.7 7.7
0 -11 4 25.6 9.6
0 -11 -4 30.9 10.1
0 -11 4 44.5 8.9
0 -11 4 51.59 7.1
0 11 -4 47.3 6.9
0 11 -4 45.6 7.7
0 11 4 37.9 9.2
0 11 4 26 7.9
0 11 4 37.8 9.6
0 11 -4 43.7 7.6
0 11 4 47.9 11.2
1 -11 4 -1 5.7
1 -11 4 1.5 6.9
-1 -11 -4 -9.1 9.1
-1 -11 -4 -9.2 6.6
1 -11 4 -6.4 10.8
-1 -11 -4 -5.9 6.1
1 -11 4 1.3 7.2
1 11 4 -8.6 8.8
-1 11 -4 -2.6 5.6
1 11 4 -6.3 7.5
1 11 4 11.1 9.1
-1 11 -4 1.5 6.5
-2 -11 -4 82.79 12.6
-2 -11 -4 83.39 11.5
2 -11 4 82.89 12.8
-2 -11 -4 72.69 15.6
-2 -11 -4 83.69 11.4
2 -11 4 49.8 15.6
2 -11 4 68.59 11
2 11 4 67.79 12.4
-2 11 -4 76.59 9.7
2 11 4 86.19 12.9
2 11 4 77.39 12.2
-3 -11 -4 35.4 10.3
3 -11 4 36.3 12
3 -11 4 54.99 13.5
-3 -11 -4 13.5 10.4
3 11 4 58.09 13.8
-3 11 -4 31.9 11
-4 -11 -4 2.1 14.6
-4 -11 -4 -1.4 16.3
4 -11 4 11.5 16
-4 11 -4 -1.6 15.1
4 11 4 0.6 15
4 -12 -4 269.37 26.9
-4 -12 4 312.27 29.7
-4 -12 4 281.57 24.6
-4 12 4 297.47 32.8
-3 -12 4 65.89 13.4
-3 -12 4 63.99 10.9
3 -12 -4 96.89 13.4
-3 12 4 82.39 15.6
2 -12 -4 420.36 31.1
-2 -12 4 470.95 23.9
2 -12 -4 397.66 24.1
-2 -12 4 432.96 25.9
2 12 -4 426.26 25
-2 12 4 446.46 31.7
-2 12 4 402.46 27
-2 12 4 432.26 33.3
-1 -12 4 561.54 28.2
1 -12 -4 463.05 33
-1 -12 4 530.65 28.7
1 -12 -4 521.35 27.1
1 12 -4 561.14 29.4
-1 12 4 513.25 29
-1 12 4 559.54 33.5
1 12 -4 584.54 27.3
-1 12 4 487.25 30.4
1 12 -4 473.25 31.3
-1 12 4 574.94 30.7
0 -12 4 387.06 23.7
0 -12 4 393.66 25.6
0 -12 -4 395.36 27.2
0 -12 4 410.66 22.1
0 -12 -4 386.76 23.5
0 12 -4 418.16 21.6
0 12 -4 364.36 22.7
0 12 4 376.26 24.7
0 12 4 408.46 28.3
0 12 -4 403.16 24.1
0 12 4 378.86 24.1
0 12 4 375.46 24.9
-1 -12 -4 412.16 24.3
-1 -12 -4 382.36 26.7
1 -12 4 390.76 29
1 -12 4 416.46 22
1 -12 4 378.26 24.2
1 -12 4 398.76 24.8
1 12 4 409.76 26.3
1 12 4 371.96 26.3
1 12 4 398.66 25.4
1 12 4 411.26 27.8
-1 12 -4 397.56 22.7
-1 12 -4 403.36 22.1
-2 -12 -4 364.46 33.1
-2 -12 -4 366.56 25.2
2 -12 4 354.26 25.5
-2 -12 -4 352.06 25.9
-2 -12 -4 369.96 25.1
2 -12 4 360.76 24.6
2 12 4 411.66 28.5
-2 12 -4 397.76 23.5
3 -12 4 242.38 26
-3 -12 -4 266.67 30
-3 -12 -4 322.07 26.7
3 12 4 257.27 26.6
-3 12 -4 264.97 23.5
4 -12 4 104.69 21.7
-4 -12 -4 53.99 19.9
-4 -12 -4 74.19 19.5
4 12 4 113.69 19
-4 12 -4 108.09 18.6
-4 -13 4 16.6 18.3
4 -13 -4 -12.1 14.7
-4 -13 4 14.4 12.6
-4 13 4 8.9 18
-3 -13 4 21.2 13.5
3 -13 -4 20.5 10.2
-3 -13 4 37.6 10.9
2 -13 -4 -10.6 8.5
-2 -13 4 4.5 10.2
-2 13 4 23.1 15.7
2 13 -4 -4.8 9.3
-2 13 4 4.8 10.5
-1 -13 4 2.5 8
-1 -13 4 -10.6 9.6
1 -13 -4 -0.9 7.3
1 13 -4 7 7.9
-1 13 4 -5.6 8.4
1 13 -4 4.5 10.1
1 13 -4 14.1 8.1
-1 13 4 -8.4 8.4
-1 13 4 -9.6 12.6
0 -13 4 86.59 11.2
0 -13 -4 74.79 15
0 -13 -4 90.69 12.7
0 -13 4 76.69 14.3
0 -13 4 94.39 12.9
0 13 4 81.09 15.3
0 13 -4 83.89 11.9
0 13 -4 95.59 10.9
0 13 4 53.29 11.4
0 13 -4 85.89 10.5
0 13 4 83.19 13.4
1 -13 4 -1.4 8.5
1 -13 4 -0.1 6.8
-1 -13 -4 -5.2 9.1
1 -13 4 18.9 11.6
-1 -13 -4 8.5 12
1 -13 4 -24 14.3
-1 13 -4 -1.5 8
-1 13 -4 11.7 8.2
-1 13 -4 6.8 8.5
1 13 4 0.8 9.7
1 13 4 -8.1 11.2
-2 -13 -4 15.9 10.2
-2 -13 -4 0.9 11.1
-2 -13 -4 -8.7 12.3
2 -13 4 5.3 8.6
2 -13 4 -14.2 11.2
2 13 4 -5.9 12.5
-2 13 -4 -4.8 8.4
-2 13 -4 2.3 9.1
-3 -13 -4 28.7 16.2
3 -13 4 22.3 16.5
3 -13 4 -4.2 13.2
-3 -13 -4 -1.9 13.5
-3 13 -4 58.09 12.4
3 13 4 20.7 15.2
-4 -13 -4 -14.4 20.1
4 -13 4 25.4 19.6
-4 -13 -4 1 17.2
-4 13 -4 -6.6 17.9
-4 -14 4 100.89 17.2
4 -14 -4 95.89 21.1
-4 -14 4 57.79 20.1
-4 14 4 50.89 23
-3 -14 4 265.77 23.3
3 -14 -4 250.57 23.2
-3 -14 4 242.28 28.4
-3 14 4 281.27 29.6
2 -14 -4 248.68 20.6
-2 -14 4 263.67 23.3
2 14 -4 259.77 22.5
-2 14 4 298.67 25.4
-2 14 4 231.48 31.5
-1 -14 4 337.47 23.1
1 -14 -4 309.47 21.9
-1 -14 4 304.87 29.5
-1 14 4 343.17 30.8
1 14 -4 317.07 20.9
-1 14 4 333.77 26.2
1 14 -4 389.46 29.2
0 -14 4 1061.39 55.89
0 -14 4 1119.29 54.29
0 -14 4 1148.39 51.89
0 -14 -4 1131.29 53.69
0 14 4 1112.39 57.49
0 14 -4 1051.99 52.49
0 14 -4 1148.29 53.89
0 14 4 1182.18 55.39
0 14 -4 1113.99 51.79
-1 -14 -4 101.99 17.7
1 -14 4 129.89 16.1
-1 -14 -4 123.59 15.1
1 -14 4 129.99 16
1 14 4 124.89 18.5
-1 14 -4 126.69 13.2
1 14 4 126.99 17.2
-1 14 -4 112.49 13.2
2 -14 4 267.77 26.3
-2 -14 -4 283.17 30.6
-2 -14 -4 259.87 27.6
-2 -14 -4 221.38 23.6
2 -14 4 199.98 27.7
-2 14 -4 272.57 20.6
2 14 4 260.27 26.6
-2 14 -4 234.48 20.5
-3 -14 -4 60.19 17
3 -14 4 55.69 20.4
-3 -14 -4 80.09 18.6
3 -14 4 64.69 17.7
-3 14 -4 84.79 16.1
3 14 4 71.49 17.1
4 -14 4 83.29 22.5
-4 -14 -4 45.4 23.7
-4 -14 -4 100.59 19.8
-4 14 -4 47.6 21.3
4 14 4 77.19 21.2
3 -15 -4 15.9 13.4
-3 -15 4 15.1 15.3
-3 -15 4 9.9 12.4
-3 15 4 32.3 18.2
2 -15 -4 4.8 10.2
-2 15 4 11.8 14.3
2 15 -4 -6.3 12
-2 15 4 0.5 19.9
1 -15 -4 22.5 9.7
-1 -15 4 11 10.9
-1 -15 4 -9.5 14.1
-1 15 4 1.1 13.1
-1 15 4 -13.7 16.3
1 15 -4 4 10.7
0 -15 4 108.69 12.4
0 -15 4 105.89 18.4
0 -15 -4 82.89 14.4
0 -15 4 66.39 13.1
0 15 4 72.49 15.4
0 15 -4 58.99 13.7
0 15 -4 88.49 13.2
0 15 4 64.99 18
-1 -15 -4 13.3 14.8
1 -15 4 -11.5 9.3
1 -15 4 3.6 11.2
1 15 4 -6.9 11.7
-1 15 -4 12.1 10.5
-1 15 -4 5 11.6
1 15 4 -6.5 15.1
2 -15 4 11.7 16.7
-2 -15 -4 13.3 14.1
-2 -15 -4 2.7 14
2 -15 4 -4.3 13.4
-2 15 -4 4.9 11.3
-2 15 -4 1.5 11.7
2 15 4 -18.2 15.7
-3 -15 -4 35.6 17.8
-3 -15 -4 9.8 18.9
3 -15 4 27.6 16.1
-3 15 -4 6.6 15
3 15 4 -4.1 18.9
3 -16 -4 102.39 18.4
-3 -16 4 74.39 20
3 16 -4 92.59 19.9
-3 16 4 129.89 23.6
-2 -16 4 200.18 25.9
2 -16 -4 200.58 23
2 16 -4 188.88 24.6
-2 16 4 213.88 29.7
-2 16 4 211.98 24.9
1 -16 -4 324.77 24.7
-1 -16 4 383.96 31.8
-1 -16 4 317.57 25.7
-1 16 4 304.17 36.7
-1 16 4 338.67 30.3
1 16 -4 338.87 25.4
0 -16 4 160.58 19.7
0 -16 4 134.19 18.3
0 -16 -4 162.98 19.2
0 -16 4 142.39 26.5
0 16 4 188.58 25.5
0 16 4 187.58 21.1
0 16 -4 168.48 18.8
1 -16 4 368.56 24.1
1 -16 4 315.87 28
-1 -16 -4 303.57 29
-1 16 -4 323.47 23.8
1 16 4 248.68 29.6
1 16 4 292.37 34.2
-1 16 -4 299.67 27
2 -16 4 366.36 31.9
2 -16 4 374.36 36.3
-2 -16 -4 358.56 33.3
2 16 4 355.16 35.1
-2 16 -4 361.86 29.1
-2 16 -4 319.87 28.2
-3 -16 -4 69.09 21.8
-3 -16 -4 44.1 18.8
3 -16 4 70.59 20.2
-3 16 -4 64.79 18.4
3 16 4 62.39 21.9
3 -17 -4 12.1 18.1
-3 17 4 28.6 23.1
-2 -17 4 -14.4 16
2 -17 -4 18.8 13.7
-2 17 4 -25.3 25.1
-2 17 4 5 20.5
2 17 -4 -1.1 15.3
-1 -17 4 22.9 20.1
-1 -17 4 1.8 14
1 -17 -4 -1.6 12.8
-1 17 4 -9.9 19.7
-1 17 4 21.9 22.6
1 17 -4 7.4 13.4
0 -17 -4 41.2 12.8
0 -17 4 41.4 15.8
0 -17 -4 34 16.1
0 -17 4 58.49 13.6
0 17 4 24.6 17.6
0 17 -4 50.59 13.9
0 17 4 78.29 23.6
1 -17 4 9.7 13
-1 -17 -4 19.3 17
1 -17 4 66.89 16.1
-1 17 -4 33.8 13.3
1 17 4 51.29 28.2
1 17 4 38.8 22.6
2 -17 4 9.8 19.8
-2 -17 -4 4.6 19.6
2 17 4 24.3 20.9
-2 17 -4 8.3 15.5
2 17 4 25.8 22.7
2 -18 -4 144.09 23.8
-2 -18 4 118.09 21
-2 18 4 109.09 24.8
1 -18 -4 145.49 20.1
-1 -18 4 164.68 19.9
1 18 -4 187.68 20.4
-1 18 4 161.68 24.6
-1 18 4 180.28 31.2
0 -18 -4 111.79 19.5
0 -18 4 138.99 21.9
0 18 4 98.59 27.2
0 18 4 129.69 23.1
0 18 -4 146.99 16.8
-1 -18 -4 69.19 20
1 -18 4 120.59 18.2
1 -18 4 137.49 23.9
1 18 4 113.69 26.9
-1 18 -4 158.28 18.9
1 18 4 144.79 23.9
-2 -18 -4 138.79 22.2
2 -18 4 156.68 24.1
-2 18 -4 131.39 19.6
2 18 4 139.29 30.2
2 18 4 161.88 29.8
1 -19 -4 19.5 18.1
-1 -19 4 34.5 17
-1 -19 4 34.6 17
-1 19 4 -2.5 22.5
-1 19 4 -8.4 27.6
0 -19 4 47.3 17.3
0 -19 -4 31.1 19.2
0 -19 -4 29.8 18.5
0 -19 4 13.8 17.7
0 19 4 43.8 21.8
0 19 4 -8 27.7
0 19 -4 36.1 16.4
1 -19 4 -29.4 17
-1 -19 -4 -13.2 18.8
1 -19 4 -6.5 16.8
1 19 4 26.4 30
-1 19 -4 -16.2 17.5
1 19 4 9.8 22.7
-5 0 5 4.7 15.2
-5 0 5 -15.9 11.6
-4 0 5 29.8 8.7
-4 0 5 21.4 10.8
2 0 -5 17.1 4.3
-1 0 5 2.6 4
1 0 -5 -0.6 2.6
1 0 -5 1.9 2.3
-1 0 5 -2.1 2.2
0 0 5 -2 2.7
0 0 5 3.4 1.8
0 0 -5 2 1.8
0 0 5 3.5 1.8
-1 0 -5 2.4 2.6
1 0 5 1.9 3.6
-1 0 -5 4 3.2
1 0 5 -3.3 2.6
2 0 5 2.6 4.3
2 0 5 7.7 4.6
-2 0 -5 4.8 3.6
-2 0 -5 -3.5 5.1
3 0 5 29.2 8.6
-3 0 -5 9.6 8.6
3 0 5 41.1 8.5
4 0 5 19.2 11.4
-4 0 -5 48.7 10.4
4 0 5 31.9 12.2
5 0 5 -1 16.8
-5 -1 5 214.88 22.9
-5 -1 5 219.68 27.9
-5 1 5 223.48 28.5
-5 1 5 176.28 19.8
-4 -1 5 256.97 19
-4 -1 5 237.08 21.2
-4 -1 5 226.38 20.5
-4 1 5 227.18 20.4
-4 1 5 277.27 19
-3 -1 5 543.65 28.1
3 -1 -5 626.44 29.5
3 -1 -5 606.24 28.7
-3 -1 5 566.44 29.6
3 1 -5 575.94 28.9
-3 1 5 621.84 28.9
-3 1 5 594.54 28.8
-3 1 5 569.54 29.1
2 -1 -5 1784.02 73.49
-2 -1 5 1713.23 73.29
2 -1 -5 1736.93 72.99
-2 -1 5 1690.53 72.39
-2 1 5 1683.93 72.39
-2 1 5 1733.83 73.89
2 1 -5 1733.43 72.59
-2 1 5 1676.13 72.79
-1 -1 5 51.19 6.2
1 -1 -5 58.49 6.2
1 -1 -5 64.49 5.4
-1 1 5 63.19 5
1 1 -5 39 5.5
-1 1 5 66.19 7.4
0 -1 5 1056.49 44.9
0 -1 -5 1129.49 46.4
0 -1 5 1120.49 46.1
0 -1 -5 948.51 44.7
0 1 5 1040.9 46.3
0 1 5 1071.59 44.9
-1 -1 -5 1674.53 66.79
-1 -1 -5 1447.16 66.29
1 -1 5 1639.14 66.19
1 -1 5 1642.64 67.09
-1 1 -5 1778.62 66.99
1 1 5 1444.16 66.29
1 1 5 1415.16 67.29
-1 1 -5 1502.25 65.99
1 1 5 1606.54 67.09
2 -1 5 809.32 38.1
2 -1 5 808.22 37
-2 -1 -5 840.72 37.2
-2 -1 -5 798.82 38
-2 1 -5 815.22 37
2 1 5 860.31 38.6
-2 1 -5 794.92 37.7
2 1 5 802.62 37.3
-3 -1 -5 302.57 16.6
-3 -1 -5 334.47 19.5
-3 -1 -5 334.37 22.6
3 -1 5 297.57 21.7
3 -1 5 333.37 20.5
-3 1 -5 297.67 21.8
3 1 5 348.97 21.3
3 1 5 337.27 22.6
-3 1 -5 329.17 19.5
-4 -1 -5 319.87 22.5
4 -1 5 309.57 25.7
4 -1 5 286.37 25.2
-4 -1 -5 269.87 18.2
-4 1 -5 304.87 22.5
4 1 5 274.77 25.8
4 1 5 258.87 26.8
-5 -1 -5 105.39 13.9
5 -1 5 106.29 22.4
-5 -1 -5 129.49 21.8
5 1 5 99.79 22.4
5 -2 -5 19.7 16.9
-5 -2 5 -8.6 14.9
-5 -2 5 -8.3 10.7
-5 2 5 -7.9 12.2
-4 -2 5 257.47 20.4
4 -2 -5 249.28 20.5
-4 -2 5 222.38 17.6
-4 -2 5 238.08 21.6
4 -2 -5 259.97 22.1
-4 2 5 185.98 19.8
-4 2 5 233.38 18.8
3 -2 -5 187.18 15.5
3 -2 -5 183.48 14.5
3 -2 -5 201.48 15.2
-3 2 5 196.48 15.3
-3 2 5 177.88 13.8
-3 2 5 205.28 13.9
2 -2 -5 5.2 5
2 -2 -5 11.1 4.6
-2 2 5 12.8 3.8
-2 2 5 12.5 5.3
1 -2 -5 288.77 14.7
1 -2 -5 262.47 13.7
-1 -2 5 227.98 13.3
-1 2 5 258.37 13.2
-1 2 5 293.07 14.8
0 -2 5 66.49 5.2
0 -2 -5 56.79 6.6
0 -2 -5 48.9 4.9
0 2 5 57.89 5
0 2 5 54.39 5.8
0 2 5 55.19 6.1
-1 -2 -5 8.3 3.2
-1 -2 -5 1.3 3.4
1 -2 5 -4.2 2.5
-1 -2 -5 5.7 3.3
1 -2 5 0.9 2.8
1 2 5 -2.8 3
1 2 5 -2.5 4
1 2 5 4.9 2.7
-1 2 -5 0.7 2.4
-1 2 -5 -0.7 3.1
1 2 5 -3.3 3.6
2 -2 5 288.97 17.2
-2 -2 -5 303.77 16.2
2 -2 5 298.57 16.1
-2 -2 -5 316.47 18.3
2 2 5 249.38 17.9
2 2 5 308.57 18.6
2 2 5 292.77 17.5
-2 2 -5 260.37 17
-2 2 -5 282.57 16.2
3 -2 5 19.7 7.6
-3 -2 -5 2.7 9.1
-3 2 -5 28.4 7.3
3 2 5 17.5 9.5
3 2 5 26.8 9.3
3 2 5 16.1 6.2
-3 2 -5 11.7 8.5
4 -2 5 15.2 12.5
-4 -2 -5 36.7 10
-4 -2 -5 29.4 8.1
4 -2 5 17.2 12.4
4 2 5 43.2 12.2
4 2 5 5.8 12.2
4 2 5 24.3 9.9
-4 2 -5 27.1 9.8
-5 -2 -5 3.7 15.6
-5 -2 -5 -7.9 11.5
5 -2 5 -7.4 18.1
-5 2 -5 12.4 20.2
5 2 5 -5.1 17.7
5 2 5 36.9 14.9
5 -3 -5 102.19 18.4
5 -3 -5 90.49 20.7
-5 -3 5 127.19 18.9
-5 -3 5 88.19 14.1
-5 3 5 98.39 16.8
4 -3 -5 354.56 28.2
4 -3 -5 390.56 25.3
-4 -3 5 419.66 25.4
-4 -3 5 395.46 22.9
-4 -3 5 365.36 28.3
-4 3 5 384.26 24.4
-4 3 5 371.56 24.8
-3 -3 5 401.96 23.4
3 -3 -5 373.86 20.6
3 -3 -5 320.67 21.3
-3 -3 5 389.26 22
3 -3 -5 374.46 22.9
-3 -3 5 385.86 19.8
-3 3 5 345.57 23.1
3 3 -5 374.46 20.2
-3 3 5 351.96 19.9
-3 3 5 382.26 20.9
2 -3 -5 612.64 28.7
2 -3 -5 535.55 31.2
-2 -3 5 607.64 28.7
-2 -3 5 609.14 27.1
-2 3 5 634.14 30.1
2 3 -5 640.54 27.2
-2 3 5 598.54 28.4
1 -3 -5 1150.38 47.3
-1 -3 5 967.6 45.8
-1 -3 5 1065.79 46.4
1 -3 -5 1095.59 47.8
-1 3 5 1106.99 48.2
-1 3 5 1087.39 46.8
0 -3 5 2570.74 94.59
0 -3 -5 2172.18 95.49
0 -3 -5 2209.58 94.29
0 3 5 2237.28 94.39
0 3 5 2085.79 94.09
0 3 5 2256.77 95.79
-1 -3 -5 1390.96 61.29
1 -3 5 1499.85 60.39
-1 -3 -5 1438.56 61.29
1 -3 5 1418.86 61.59
-1 -3 -5 1391.36 60.69
1 3 5 1366.16 60.49
-1 3 -5 1557.24 61.69
1 3 5 1370.26 62.19
1 3 5 1381.26 61.29
1 3 5 1387.36 61.69
-1 3 -5 1541.25 60.49
-2 -3 -5 153.38 11.4
2 -3 5 143.59 12
-2 -3 -5 150.18 9.7
-2 -3 -5 142.59 13.3
2 -3 5 140.49 11
-2 3 -5 153.58 12.7
2 3 5 164.38 13.3
-2 3 -5 157.68 11.5
2 3 5 145.69 10.2
2 3 5 149.59 11.7
2 3 5 153.28 12.1
3 -3 5 365.96 22.6
-3 -3 -5 376.56 25.1
-3 -3 -5 374.46 19.7
-3 -3 -5 350.56 21.4
3 -3 5 366.36 23.6
3 3 5 341.27 21.7
-3 3 -5 390.06 21.5
3 3 5 355.46 19.8
3 3 5 368.06 24.3
-3 3 -5 339.77 23.4
3 3 5 365.06 22.6
4 -3 5 165.38 21.7
-4 -3 -5 158.78 16.5
-4 -3 -5 177.98 19.3
4 -3 5 186.98 21.8
-4 3 -5 204.28 20.2
4 3 5 149.59 19.2
4 3 5 176.88 18.9
4 3 5 167.08 23.6
-5 -3 -5 100.59 18.7
-5 -3 -5 94.29 14
5 -3 5 85.59 20.5
5 3 5 63.19 20
5 3 5 125.29 19.3
-5 3 -5 115.29 23
5 -4 -5 -14 14.6
-5 -4 5 6.9 15.1
5 -4 -5 -10.1 20.5
-5 -4 5 -0.4 11.3
-5 4 5 7.7 13
-4 -4 5 13.9 9.6
4 -4 -5 -8.1 13.2
-4 -4 5 4.1 8.1
-4 -4 5 5.9 12.9
4 -4 -5 0.5 9.7
-4 4 5 16.8 9.9
-4 4 5 4.1 8.7
3 -4 -5 48.8 10
3 -4 -5 43.9 8.2
3 -4 -5 47.3 9.7
-3 -4 5 50.19 8.9
-3 -4 5 74.09 8.7
-3 4 5 38.5 7.2
-3 4 5 37.6 9.2
-3 4 5 43.1 6.7
2 -4 -5 77.79 10.5
2 -4 -5 84.29 9.6
-2 -4 5 65.09 6.6
-2 -4 5 69.89 7.8
-2 4 5 85.89 8.4
2 4 -5 50.59 6.8
-2 4 5 78.89 9.9
1 -4 -5 57.99 7.6
1 -4 -5 80.09 10.4
-1 -4 5 56.49 6.3
-1 4 5 68.99 8.4
-1 4 5 58.99 7
0 -4 5 1.3 2.6
0 4 5 -0.4 3.6
0 4 5 4.4 2.9
0 4 5 3.6 4.1
-1 -4 -5 46.7 5.9
1 -4 5 49.9 6.7
1 -4 5 50.09 5.9
-1 -4 -5 50.49 6.4
-1 -4 -5 51.99 6.3
-1 -4 -5 53.99 7
-1 4 -5 52.89 5.5
-1 4 -5 52.59 6.4
1 4 5 55.29 6.4
1 4 5 50.49 6.7
1 4 5 62.99 7
-2 -4 -5 184.78 15.3
-2 -4 -5 193.48 12.1
-2 -4 -5 184.68 13.1
2 -4 5 190.78 13.7
2 -4 5 188.68 12.4
2 4 5 172.28 13.1
-2 4 -5 185.18 14.2
2 4 5 205.28 14
2 4 5 171.08 13.4
-2 4 -5 191.68 13.3
2 4 5 187.28 14.9
3 -4 5 44.2 9.2
-3 -4 -5 38.7 8.5
-3 -4 -5 31.1 10.9
3 -4 5 35.2 8.7
-3 -4 -5 46.8 7
3 4 5 41.2 10
3 4 5 43.2 7.7
3 4 5 48.2 10.6
-3 4 -5 34 8.8
-3 4 -5 43.6 10.2
3 4 5 50.19 9
-4 -4 -5 48.5 11.6
4 -4 5 75.09 14.1
-4 -4 -5 68.69 10.8
4 -4 5 49.3 13.3
-4 4 -5 77.99 12
4 4 5 54.69 11.9
4 4 5 64.99 16.4
-5 -4 -5 -5.6 15
5 -4 5 6.5 17.8
-5 -4 -5 21.1 13.4
5 4 5 -6.5 14.7
-5 4 -5 -8.6 18.6
-5 -5 5 33.5 13.5
-5 -5 5 -14.3 15.7
5 -5 -5 19.6 15.6
-5 5 5 44.3 14.8
4 -5 -5 316.57 29.2
4 -5 -5 343.67 22.9
-4 -5 5 307.97 24.4
-4 -5 5 317.07 21.1
-4 -5 5 301.77 28.6
-4 5 5 347.57 23.4
-4 5 5 350.56 23.4
3 -5 -5 325.87 19.7
-3 -5 5 342.37 24
-3 -5 5 350.26 19.3
-3 -5 5 337.87 21.1
3 -5 -5 392.06 24.7
3 -5 -5 356.36 22.3
-3 5 5 351.86 19.2
-3 5 5 357.46 23.8
3 5 -5 324.27 19.7
-3 5 5 353.56 20.8
-2 -5 5 786.12 34.9
2 -5 -5 786.02 38.3
2 -5 -5 854.11 42.3
-2 -5 5 792.52 36.7
-2 5 5 773.02 36.8
2 5 -5 783.72 34.8
-2 5 5 807.52 39
-1 -5 5 1108.79 47.8
1 -5 -5 1126.59 49.1
1 -5 -5 1107.19 49.7
-1 5 5 1094.49 49.99
-1 5 5 1076.09 48.5
-1 5 5 1079.79 48.4
0 -5 -5 2062.49 91.39
0 -5 5 2429.76 89.19
0 -5 5 2239.18 90.49
0 -5 -5 2033.4 90.09
0 5 5 1870.81 91.09
0 5 5 2168.48 92.19
0 5 5 2110.19 90.99
0 5 5 2182.48 90.39
1 -5 5 48.9 6.6
-1 -5 -5 49.7 5.9
-1 -5 -5 34.1 6.3
-1 -5 -5 44.9 6.6
-1 -5 -5 42.2 6.1
1 -5 5 50.19 5.3
-1 5 -5 41 6.3
-1 5 -5 37.6 4.6
1 5 5 48.3 6.2
1 5 5 43.8 7.4
2 -5 5 1780.92 79.09
2 -5 5 1801.42 77.79
-2 -5 -5 1815.32 78.59
-2 -5 -5 1846.02 79.49
-2 -5 -5 1840.42 77.39
2 5 5 1876.51 79.39
-2 5 -5 1877.01 77.89
2 5 5 1766.12 77.29
-2 5 -5 1752.42 78.79
2 5 5 1774.32 78.59
-3 -5 -5 113.79 14.8
-3 -5 -5 116.49 15.2
-3 -5 -5 122.69 12.7
3 -5 5 130.19 13.3
3 -5 5 125.19 15.1
3 5 5 129.89 16.3
-3 5 -5 86.19 12.2
3 5 5 154.18 14.8
-3 5 -5 121.39 14.2
4 -5 5 148.79 18
-4 -5 -5 159.68 18.3
4 -5 5 147.39 18.4
-4 -5 -5 158.28 16.8
4 5 5 158.48 19.1
-4 5 -5 157.18 19.8
-5 -5 -5 137.59 17.4
5 -5 5 103.09 22.2
-5 -5 -5 142.79 21.4
-5 5 -5 123.29 34.7
5 5 5 129.49 20.2
-5 -6 5 13.1 11.8
5 -6 -5 15.3 15.1
-5 -6 5 0.4 15.8
-5 6 5 16 15.3
4 -6 -5 33.7 16.3
-4 -6 5 10.1 8.2
-4 -6 5 -2.7 10
4 -6 -5 -13.2 9.2
-4 6 5 -0.4 9.7
-4 6 5 -3.7 9.9
-3 -6 5 -6.1 10.3
3 -6 -5 27.8 11.6
-3 -6 5 30.6 8.3
3 -6 -5 32.4 7.1
-3 -6 5 32.1 6.4
3 -6 -5 21.7 8.9
-3 6 5 15.3 8.1
3 6 -5 27.6 7.5
-3 6 5 24.9 10.5
-3 6 5 29.5 6.2
2 -6 -5 33.6 6.9
-2 -6 5 26.4 6
-2 -6 5 24.5 4.8
2 -6 -5 20.1 8
-2 6 5 23.8 9.3
-2 6 5 26.7 7.1
2 6 -5 20.4 4.6
-1 -6 5 98.69 9
1 -6 -5 96.29 10.4
1 -6 -5 97.59 11.3
-1 6 5 94.99 11.6
-1 6 5 101.19 9.6
-1 6 5 95.59 10
0 -6 -5 74.49 8.6
0 -6 -5 89.09 10.3
0 -6 5 104.39 8.9
0 -6 5 105.99 7.6
0 6 5 88.39 9.3
0 6 5 95.89 10.6
0 6 -5 113.29 7.2
0 6 5 93.19 9.4
0 6 5 90.39 8.5
-1 -6 -5 5.9 5.3
1 -6 5 -2.9 3.4
-1 -6 -5 6.2 4.1
-1 -6 -5 0.5 4.3
-1 -6 -5 4.9 5.1
1 -6 5 1 4.3
-1 6 -5 -2.5 3.2
1 6 5 4.7 5.3
-1 6 -5 4.1 4.3
1 6 5 -2.8 4.7
1 6 5 0.7 4.7
-2 -6 -5 15 8.1
2 -6 5 9.8 6.1
-2 -6 -5 25.7 6.4
-2 -6 -5 8.9 5.3
2 -6 5 15 6.2
-2 6 -5 3.5 5.7
2 6 5 13.4 6.9
2 6 5 11.1 6.2
-2 6 -5 1.5 6.7
2 6 5 13.4 6.1
3 -6 5 47.3 9.7
-3 -6 -5 47.3 13.4
3 -6 5 42.9 10.1
-3 -6 -5 45.8 9.1
-3 -6 -5 47.7 8
-3 6 -5 50.59 13.5
3 6 5 32.4 10
3 6 5 43.8 9.7
3 6 5 51.09 9.7
-3 6 -5 55.89 10.1
-4 -6 -5 14.8 12.1
-4 -6 -5 16.2 9.8
4 -6 5 7.5 14.4
4 -6 5 10.3 12.4
4 6 5 21.4 11.4
-4 6 -5 -4.2 11
-5 -6 -5 1.4 17.5
-5 -6 -5 11.1 16
5 -6 5 56.89 21
5 6 5 -1.3 15.5
-5 -7 5 146.09 17.4
-5 -7 5 150.38 21.3
5 -7 -5 165.58 21.1
-5 7 5 177.08 21.7
4 -7 -5 247.28 34.5
-4 -7 5 222.58 18.5
4 -7 -5 261.47 21.9
-4 -7 5 284.07 23.9
-4 7 5 217.88 20.5
-4 7 5 227.68 22.3
-3 -7 5 307.17 25.7
3 -7 -5 346.77 19.5
3 -7 -5 316.77 26.5
-3 -7 5 347.67 18.9
-3 -7 5 331.37 21.7
-3 7 5 326.67 25.4
3 7 -5 315.37 19.8
-3 7 5 347.37 21
-3 7 5 338.37 18.7
2 -7 -5 664.53 32.7
2 -7 -5 606.54 29.3
-2 -7 5 681.33 29.4
-2 -7 5 645.34 31.6
2 -7 -5 618.64 34
2 7 -5 630.04 29.2
-2 7 5 662.13 31.9
-2 7 5 647.74 35.1
-2 7 5 636.04 32.1
-1 -7 5 1081.19 47.2
1 -7 -5 1087.29 49.99
-1 7 5 1051.09 50.19
-1 7 5 1072.79 48.2
-1 7 5 1076.79 48.5
0 -7 -5 959.2 45.8
0 -7 -5 1018.1 47.4
0 -7 5 1067.59 44.4
0 -7 5 1030.5 46.2
0 7 5 1070.39 46.3
0 7 5 1011.4 46.1
0 7 5 1032.9 47
0 7 5 957.6 47.6
0 7 -5 1103.39 44.5
-1 -7 -5 290.57 22.2
1 -7 5 339.57 17.3
-1 -7 -5 338.07 18.7
1 -7 5 322.77 18.3
-1 -7 -5 354.76 20.2
-1 -7 -5 320.67 18.5
1 7 5 344.77 18.8
-1 7 -5 340.07 16.9
1 7 5 352.96 19.3
1 7 5 322.57 20.7
-2 -7 -5 589.64 28.4
2 -7 5 572.54 28.4
-2 -7 -5 535.85 38.8
2 -7 5 578.54 30.3
-2 -7 -5 565.14 29
-2 7 -5 528.35 29.5
2 7 5 604.04 30.3
-2 7 -5 604.04 28.2
2 7 5 586.74 30.3
3 -7 5 156.38 17
-3 -7 -5 150.58 16.7
-3 -7 -5 168.88 16.9
3 -7 5 180.18 17.6
-3 -7 -5 152.88 18
3 7 5 155.38 16.6
3 7 5 147.39 17.8
3 7 5 194.58 17.7
-3 7 -5 149.39 15.3
4 -7 5 311.97 35
-4 -7 -5 287.57 23.6
-4 -7 -5 204.98 24.5
4 -7 5 225.48 22.8
4 7 5 331.87 31.3
-4 7 -5 263.57 24.3
4 7 5 240.88 24.8
-5 -7 -5 61.49 21.3
5 -7 5 64.89 21.1
5 7 5 82.89 19.6
-5 7 -5 66.89 22.9
5 -8 -5 1 16.2
-5 -8 5 10.2 13
-5 -8 5 -17.7 16.3
-5 8 5 30.5 16.4
-4 -8 5 19.4 9.5
4 -8 -5 40.9 12
-4 8 5 25.8 10.7
-3 -8 5 74.49 14.6
-3 -8 5 51.99 7.4
3 -8 -5 35.7 8.3
3 -8 -5 4.5 11.1
-3 -8 5 41.5 9.8
3 -8 -5 65.39 15.5
-3 8 5 32.2 12.3
3 8 -5 45 8.7
-3 8 5 33.1 7
-3 8 5 45.3 9.9
-3 8 5 45.3 12.3
2 -8 -5 3.6 4.3
-2 -8 5 -1.2 4.4
2 -8 -5 1.3 8.5
2 -8 -5 2.9 10.1
-2 -8 5 -0.7 6.4
-2 8 5 3.1 9.8
-2 8 5 -8.1 7.7
-2 8 5 -0.6 6.3
2 8 -5 7.3 5.2
1 -8 -5 33.1 9
-1 -8 5 39.4 6.7
-1 8 5 38.8 6.3
-1 8 5 30.9 7.2
-1 8 5 39.6 7.9
1 8 -5 25.9 6.6
-1 8 5 18.3 8.3
0 -8 5 307.37 17.5
0 -8 5 284.47 15.7
0 -8 -5 334.87 20
0 -8 -5 285.07 17.6
0 8 5 320.87 18.4
0 8 5 301.27 17.7
0 8 5 291.47 19.5
0 8 -5 329.57 16
0 8 -5 287.17 15.2
0 8 5 292.27 18.4
-1 -8 -5 80.99 10.6
-1 -8 -5 75.79 8.5
-1 -8 -5 62.99 8.6
1 -8 5 86.29 8.9
1 -8 5 56.39 8.4
-1 -8 -5 66.89 9.6
1 8 5 62.69 8.8
1 8 5 69.89 9.2
-1 8 -5 64.59 8
2 -8 5 53.09 8.7
-2 -8 -5 54.29 8.8
-2 -8 -5 34 9.1
-2 -8 -5 59.09 11.8
2 -8 5 50.09 9.6
-2 -8 -5 43 8.7
2 8 5 46.9 8.7
2 8 5 65.69 10
-2 8 -5 48.9 7.5
-2 8 -5 59.69 10.3
2 8 5 44.7 9.9
-3 -8 -5 30.7 9.2
-3 -8 -5 52.09 13.3
-3 -8 -5 19.7 8.7
3 -8 5 13.5 10.1
3 -8 5 28.4 10.5
3 8 5 18.7 11.1
3 8 5 30 10.5
-3 8 -5 29.2 9.2
3 8 5 29.7 11
4 -8 5 6.7 14.1
-4 -8 -5 36.2 13.2
-4 -8 -5 4.4 14.6
4 -8 5 14.9 16.4
4 8 5 16.7 12.6
-4 8 -5 28.1 13.8
-5 -8 -5 -21 20.9
-5 -8 -5 9 20.3
5 -8 5 -4.7 19.1
5 8 5 3.7 17.4
-5 8 -5 25.6 21.4
-5 -9 5 139.29 22.8
-5 -9 5 136.09 18.5
5 -9 -5 154.68 20.9
-5 9 5 176.28 24.3
-4 -9 5 273.67 26.9
4 -9 -5 288.37 23.5
-4 -9 5 228.98 20.4
-4 9 5 261.67 21.5
-4 9 5 256.27 25.7
-3 -9 5 309.27 18.9
3 -9 -5 288.17 19.8
-3 -9 5 329.67 22.4
3 -9 -5 299.67 29.1
-3 9 5 309.77 27
-3 9 5 334.17 22.9
3 9 -5 268.87 20.3
-2 -9 5 84.19 9.6
-2 -9 5 85.19 10.3
2 -9 -5 80.79 9.6
2 -9 -5 79.39 14
2 -9 -5 76.69 12
2 9 -5 81.39 8.4
-2 9 5 96.29 12.3
-2 9 5 89.79 11.8
-2 9 5 94.59 15.4
1 -9 -5 642.94 29.3
1 -9 -5 656.53 34.7
-1 -9 5 625.94 30.4
1 9 -5 665.53 29
-1 9 5 606.24 32.1
-1 9 5 695.13 35.3
1 9 -5 631.64 30.9
-1 9 5 625.44 32.2
-1 9 5 624.24 31.3
0 -9 5 815.12 38.3
0 -9 5 819.32 36.2
0 -9 -5 758.32 39.4
0 -9 5 794.32 38.7
0 -9 -5 780.52 38.1
0 9 -5 812.22 35.9
0 9 5 804.52 40.4
0 9 5 829.62 39.2
0 9 5 826.42 38.4
0 9 -5 840.42 35.7
0 9 -5 808.42 36.2
0 9 5 790.32 38.2
1 -9 5 401.46 23
1 -9 5 427.96 21.4
-1 -9 -5 397.96 22.5
-1 -9 -5 393.96 24.6
-1 -9 -5 405.06 24
-1 -9 -5 392.46 22.7
-1 9 -5 398.66 20.7
1 9 5 412.06 24.9
1 9 5 410.86 23.4
1 9 5 420.36 23.5
-2 -9 -5 319.47 25
-2 -9 -5 306.57 20.8
-2 -9 -5 291.87 20.5
2 -9 5 320.97 19.8
-2 -9 -5 339.87 22.2
2 -9 5 301.27 21
2 9 5 326.67 21.4
-2 9 -5 296.27 21.4
2 9 5 336.27 22.7
-2 9 -5 333.97 19.1
2 9 5 329.87 22.6
-3 -9 -5 587.64 33.1
-3 -9 -5 611.84 32.3
3 -9 5 553.44 34.2
3 9 5 578.64 34.1
3 9 5 625.64 34.8
-3 9 -5 592.74 32.1
-4 -9 -5 81.89 15.8
-4 -9 -5 69.39 17.7
4 -9 5 65.99 16.7
4 -9 5 89.59 18.8
-4 9 -5 70.79 14.7
4 9 5 84.39 15.2
-5 -9 -5 126.39 24.7
5 -9 5 148.79 26
-5 9 -5 145.99 25.5
-5 -10 5 7.2 14.8
5 -10 -5 37.3 19.6
-5 -10 5 18.3 19.1
-5 10 5 13 19.7
4 -10 -5 65.29 13.1
-4 -10 5 36.4 12.4
-4 -10 5 66.29 16
-4 10 5 34.9 15.1
-4 10 5 49.8 12.8
3 -10 -5 -0.3 7.7
-3 -10 5 0.4 9
-3 -10 5 7.7 7.5
3 10 -5 15.6 9.1
-3 10 5 2.6 14
-3 10 5 5.5 10.7
2 -10 -5 -8.7 11.8
2 -10 -5 -5.2 10.2
-2 -10 5 9.7 7.3
-2 -10 5 -8.7 5.7
2 -10 -5 -2 4.8
2 10 -5 -0.6 6.5
-2 10 5 -5.1 11.1
-2 10 5 -15.3 9
2 10 -5 -1.5 9.7
-2 10 5 5.2 7.2
1 -10 -5 -3.8 4.6
-1 -10 5 2.6 6.5
1 -10 -5 2.5 9.4
-1 10 5 10.9 9.7
1 10 -5 -3.8 4.7
-1 10 5 6.2 6.8
-1 10 5 -7.8 8.6
-1 10 5 -4.1 6.5
1 10 -5 -6 4.9
1 10 -5 6.1 7.4
0 -10 -5 35 9.8
0 -10 5 24.2 8.6
0 -10 -5 23.7 8.1
0 -10 5 38.9 6.4
0 -10 5 23.5 6.9
0 10 5 18.1 9
0 10 5 28.8 9
0 10 5 28.8 7.8
0 10 -5 29.2 5.4
0 10 -5 36.3 6.8
0 10 -5 25.7 5.3
0 10 5 19.7 8.6
-1 -10 -5 0.7 10
1 -10 5 1.7 6.2
-1 -10 -5 0.5 6.7
1 -10 5 5.3 10.6
1 -10 5 0.3 5.1
1 -10 5 3.1 6.2
-1 -10 -5 -11.6 8.1
-1 -10 -5 2 7.2
1 10 5 -0.7 8.5
-1 10 -5 1.3 4.6
-1 10 -5 -8.9 5.5
1 10 5 8 7.7
1 10 5 4.3 8.5
2 -10 5 17.3 7.6
2 -10 5 3.2 13.4
-2 -10 -5 8.2 9
-2 -10 -5 6.5 9.9
-2 -10 -5 28.2 12.4
-2 -10 -5 6.9 8.3
2 10 5 12.3 10.6
-2 10 -5 8.6 7.5
2 10 5 6.2 10.7
2 10 5 -13.6 9.4
-3 -10 -5 -8.6 10.5
-3 -10 -5 -4 11.1
3 -10 5 11.8 12
3 -10 5 1.6 10.4
-3 10 -5 -8.4 8.9
3 10 5 1.3 11.9
-4 -10 -5 12.8 16.7
4 -10 5 -2.5 15.6
4 10 5 12.4 13.9
-4 10 -5 13.5 14.1
-4 -11 5 190.98 20.6
4 -11 -5 187.78 22
-4 -11 5 232.08 27.7
-4 11 5 164.38 22.9
-3 -11 5 171.78 20.4
-3 -11 5 171.88 15.6
3 -11 -5 149.49 16.8
-3 11 5 178.28 21.4
-3 11 5 162.48 22
-2 -11 5 1047.9 43.5
2 -11 -5 915.41 48.3
2 -11 -5 927.11 43.5
-2 -11 5 929.61 45
-2 11 5 924.81 46.6
2 11 -5 919.41 43.4
-2 11 5 897.71 46.5
-2 11 5 990.7 50.89
2 11 -5 946.31 46.7
-1 -11 5 299.97 19
1 -11 -5 265.17 24.1
-1 -11 5 287.77 19.3
1 -11 -5 300.77 17.6
-1 11 5 261.17 19.2
-1 11 5 280.57 24.6
1 11 -5 315.37 17.2
-1 11 5 301.07 22.4
-1 11 5 287.17 20.6
1 11 -5 286.87 20.1
1 11 -5 289.47 16.9
0 -11 5 171.88 13.2
0 -11 -5 160.58 15.8
0 -11 -5 153.28 18.7
0 -11 5 175.68 15.3
0 -11 5 209.08 18.3
0 11 5 166.18 16.2
0 11 5 145.99 16
0 11 5 146.09 17.6
0 11 -5 194.18 13
0 11 -5 177.48 12.6
0 11 5 167.98 19.6
0 11 -5 183.08 14.2
-1 -11 -5 473.35 28.4
1 -11 5 503.75 24
1 -11 5 471.55 26.7
-1 -11 -5 496.95 27.2
-1 -11 -5 469.35 26.9
1 -11 5 479.65 26
1 -11 5 463.65 30.7
1 11 5 442.46 29.8
-1 11 -5 454.65 23.4
1 11 5 464.65 27.7
1 11 5 454.85 27.4
-1 11 -5 520.55 27.1
2 -11 5 225.08 19.8
-2 -11 -5 242.98 19.5
-2 -11 -5 255.07 27.4
-2 -11 -5 234.98 20.1
2 -11 5 226.48 19.8
-2 -11 -5 256.37 21.6
2 11 5 266.57 23.5
2 11 5 196.58 22.5
-2 11 -5 245.98 17.1
2 11 5 238.58 22.2
-3 -11 -5 240.98 23.7
3 -11 5 259.77 25.3
-3 -11 -5 244.98 24.3
3 -11 5 183.28 25.3
-3 11 -5 263.77 21.5
3 11 5 276.17 25.7
-4 -11 -5 165.18 21.7
4 -11 5 186.08 24.6
-4 -11 -5 170.48 22.1
4 11 5 166.88 21
-4 11 -5 194.58 22
4 -12 -5 4.4 13.3
-4 -12 5 11.8 12.2
-4 -12 5 -21.1 16.9
-4 12 5 21.5 18.9
-3 -12 5 16.6 8.7
3 -12 -5 15.8 10.4
-3 12 5 25.7 15.8
-3 12 5 9 27.3
2 -12 -5 2.2 6.6
-2 -12 5 21.5 10
2 12 -5 9.3 8.3
-2 12 5 4.3 10.2
2 12 -5 7.8 9.2
-2 12 5 -4.7 13.6
-1 -12 5 83.09 11.2
-1 -12 5 76.29 11.8
1 -12 -5 83.69 11.2
1 -12 -5 55.59 15
1 12 -5 77.49 12.3
-1 12 5 96.89 11.9
1 12 -5 81.59 9.3
-1 12 5 101.59 15.4
1 12 -5 85.89 9.9
-1 12 5 77.29 13.5
-1 12 5 76.89 12.4
0 -12 5 85.49 11.3
0 -12 -5 67.79 10.5
0 -12 -5 30.1 12.5
0 -12 5 69.59 12.5
0 -12 5 71.39 9.1
0 12 -5 81.69 9.4
0 12 5 75.79 11.5
0 12 5 71.29 11.5
0 12 5 86.79 14.8
0 12 -5 76.19 10.3
0 12 -5 80.39 9.2
-1 -12 -5 5.2 8.9
-1 -12 -5 10.5 11.3
1 -12 5 -4.1 8.9
1 -12 5 2.8 7.2
1 -12 5 -8.8 6.8
1 -12 5 9.1 12.9
1 12 5 -2.4 11
1 12 5 4 11
-1 12 -5 -1.5 7.8
1 12 5 8.6 9.1
1 12 5 -19.5 9.9
-1 12 -5 -11.9 6.6
-2 -12 -5 107.19 14.2
-2 -12 -5 86.09 18.8
2 -12 5 125.79 15
-2 -12 -5 108.29 16.3
-2 -12 -5 131.79 14.6
2 -12 5 129.19 17.2
2 12 5 103.39 16
-2 12 -5 126.29 14.2
3 -12 5 5.2 14.7
-3 -12 -5 9 16.1
-3 -12 -5 13.1 15.3
3 -12 5 -12.8 11.9
-3 12 -5 13.5 11.1
3 12 5 -2.1 13.9
4 -12 5 -22.9 17.2
-4 -12 -5 25.8 17.2
-4 -12 -5 1.6 19.7
4 12 5 -22.8 18.1
-4 12 -5 -4.2 16.5
4 -13 -5 92.09 17.9
-4 -13 5 64.39 14.4
-4 -13 5 101.59 20.3
-4 13 5 81.09 22.1
3 -13 -5 153.68 19
-3 -13 5 143.09 18.1
-3 -13 5 139.29 18.3
-3 13 5 120.09 24.8
-3 13 5 122.39 21.1
2 -13 -5 288.37 20.3
-2 -13 5 329.17 23.5
-2 13 5 294.87 31.3
-2 13 5 301.07 25.6
1 -13 -5 325.17 20.1
-1 -13 5 354.26 21.6
-1 -13 5 311.77 23.8
1 13 -5 329.67 20.2
-1 13 5 335.37 24.3
1 13 -5 269.67 24
1 13 -5 347.17 20.9
-1 13 5 321.07 29.4
-1 13 5 278.97 22.6
0 -13 -5 367.66 30.7
0 -13 5 464.65 26.8
0 -13 5 428.96 29.3
0 -13 5 432.76 24.4
0 -13 -5 421.26 27.1
0 13 5 468.85 28.5
0 13 5 432.06 27.5
0 13 5 406.66 31.1
0 13 -5 470.25 24.1
0 13 -5 375.76 25.8
0 13 -5 411.16 25.6
1 -13 5 477.45 30.7
-1 -13 -5 489.95 33.3
-1 -13 -5 498.75 30.5
1 -13 5 489.35 34.8
1 -13 5 558.54 27.2
1 -13 5 523.55 30.4
1 13 5 504.45 31.9
-1 13 -5 524.25 27.6
-1 13 -5 447.76 27.7
1 13 5 569.84 33.7
-1 13 -5 539.95 29.1
-2 -13 -5 170.68 20.6
-2 -13 -5 235.48 22.5
2 -13 5 242.78 22.7
-2 -13 -5 194.38 22.3
2 -13 5 190.08 21.6
-2 13 -5 210.68 18.1
2 13 5 220.78 24.9
3 -13 5 105.69 19.4
-3 -13 -5 81.49 16.7
-3 -13 -5 111.29 19
3 -13 5 88.29 18.1
3 13 5 89.99 18
-3 13 -5 98.59 16.6
-4 -13 -5 135.19 24.7
-4 -13 -5 100.79 21
4 -13 5 135.79 24
4 13 5 130.99 21.9
-4 13 -5 126.79 22.1
-4 -14 5 -17.2 18
4 -14 -5 2.8 17.2
-4 -14 5 -6.9 14.7
-4 14 5 -15.4 20.1
3 -14 -5 59.99 12.2
-3 -14 5 50.19 15.8
-3 14 5 41.1 22.8
-3 14 5 17 17.5
-2 -14 5 -2.4 11.5
2 -14 -5 9.6 10
-2 14 5 31.8 13.4
-2 14 5 6 21.7
2 14 -5 23.2 12.1
1 -14 -5 9.8 9.2
-1 -14 5 28.6 10
1 14 -5 14.3 15.7
-1 14 5 38.2 17.4
-1 14 5 27.6 12.1
1 14 -5 2.7 10.8
0 -14 5 -2.4 10.1
0 -14 5 13.5 8.4
0 -14 5 38.3 14.6
0 -14 -5 9.4 11
0 14 5 16.2 15.2
0 14 -5 19.3 10.9
0 14 -5 1.2 8.7
0 14 5 26.2 11.7
0 14 -5 6.3 10.5
1 -14 5 5.6 8.7
1 -14 5 -1.3 10.4
-1 -14 -5 -0.2 11.3
-1 14 -5 2.8 10.1
-1 14 -5 -10.3 9.4
1 14 5 -1.4 11.7
1 14 5 -3.5 14.6
-2 -14 -5 43.9 15.7
2 -14 5 12.5 12.2
2 -14 5 37 15.7
-2 14 -5 31.3 11.1
2 14 5 13.1 16
-3 -14 -5 -5.8 14.5
3 -14 5 1.9 15.5
-3 -14 -5 17.4 17.8
3 -14 5 24.7 19.9
3 14 5 19.3 17.6
-3 14 -5 -5.6 14.2
3 -15 -5 208.28 23.6
-3 -15 5 172.68 22.7
-3 -15 5 183.18 22.8
-3 15 5 221.78 27.9
3 15 -5 183.58 20.2
2 -15 -5 264.37 21.5
-2 -15 5 211.78 27.1
-2 15 5 246.58 29.7
2 15 -5 252.37 22.4
-2 15 5 286.47 29.7
-1 -15 5 306.67 24.5
1 -15 -5 304.67 22.4
-1 -15 5 287.87 28.4
1 15 -5 315.77 23.4
-1 15 5 312.27 28.6
-1 15 5 419.76 55.99
0 -15 5 447.46 26.5
0 -15 5 413.46 34.4
0 -15 5 426.06 32.7
0 -15 -5 481.65 34.2
0 15 5 423.06 31
0 15 5 444.46 36.5
0 15 -5 416.96 26.1
0 15 -5 449.56 30.1
1 -15 5 139.59 14.6
-1 -15 -5 106.49 18
1 -15 5 132.19 17.6
-1 15 -5 156.08 15.3
1 15 5 130.19 19.6
1 15 5 136.59 20.8
-1 15 -5 98.49 14.1
2 -15 5 235.48 26
-2 -15 -5 204.68 21.6
2 -15 5 190.88 23
-2 -15 -5 176.48 21.4
-2 15 -5 213.58 22.2
2 15 5 182.78 25.1
-3 -15 -5 88.09 21.7
-3 -15 -5 91.29 20.8
3 -15 5 81.19 20.8
-3 15 -5 80.59 17.4
3 15 5 64.99 21
-3 -16 5 -8.2 18
3 -16 -5 -22 14.8
-3 16 5 23.5 22.3
2 -16 -5 3 11.4
-2 -16 5 20.4 15.5
2 16 -5 -4.6 13.1
-2 16 5 -14.7 23.3
-2 16 5 2.6 17.8
-1 -16 5 12.9 11.4
-1 -16 5 2.3 17.4
1 -16 -5 40.7 11.6
-1 16 5 1.7 20.5
1 16 -5 19.9 10.8
0 -16 5 29.7 11.8
0 -16 -5 14 14.7
0 -16 5 19.2 13.1
0 16 -5 13.5 10.6
0 16 5 16.3 16.3
-1 -16 -5 -10.8 14.9
1 -16 5 4.6 11.2
1 -16 5 3.9 13.6
1 16 5 -21.6 20.4
-1 16 -5 13.4 13.9
-1 16 -5 -7.9 11.9
1 16 5 24.2 26.8
-2 -16 -5 -7 17.3
2 -16 5 13.8 16
2 16 5 14.6 21.8
-2 16 -5 24.1 14.2
2 16 5 1.9 19.4
-3 -16 -5 25.5 17.3
3 -16 5 52.89 19.9
-3 -16 -5 17.6 20.9
3 16 5 24.9 25.4
-3 16 -5 30.5 18.1
-2 -17 5 202.48 22.4
2 -17 -5 241.28 25.7
-2 17 5 248.58 28.3
2 17 -5 222.88 26.2
-2 17 5 170.48 30.8
1 -17 -5 163.38 17.4
-1 -17 5 155.68 19
-1 -17 5 195.18 24.3
-1 17 5 162.18 22.7
-1 17 5 159.28 28.3
1 17 -5 160.88 18.6
0 -17 5 97.79 15.9
0 -17 -5 82.69 15.3
0 -17 5 103.29 18.6
0 -17 -5 86.19 18.5
0 17 5 92.19 20
0 17 -5 95.39 14.9
0 17 5 104.29 26.9
-1 -17 -5 318.87 33.5
1 -17 5 349.67 27.5
1 -17 5 364.36 32.3
-1 17 -5 356.16 27.9
1 17 5 328.97 35.6
1 17 5 326.57 41.9
-2 -17 -5 129.89 22.8
2 -17 5 157.58 23
2 17 5 130.79 25.9
2 17 5 135.49 32.1
-2 17 -5 147.39 21
2 -18 -5 1.9 17.2
-2 -18 5 7.7 18.4
-2 18 5 -21 22.4
-2 18 5 15.4 27.8
-1 -18 5 -1.3 15.8
1 -18 -5 13.3 15.7
-1 -18 5 27.6 18.3
-1 18 5 -6.9 19.7
-1 18 5 47.5 27.8
0 -18 -5 -25.5 16
0 -18 5 -18.4 14.9
0 -18 -5 13.1 15.5
0 18 5 7.4 26.3
0 18 5 5.1 19.1
0 18 -5 -7.9 14.5
1 -18 5 -22.6 14.2
1 -18 5 -2 16.3
-1 -18 -5 -11.2 17.7
-1 18 -5 1.6 16
1 18 5 -0.7 19.9
1 18 5 5.1 26.5
1 -19 -5 210.68 23.6
-1 -19 5 242.58 28.7
-1 19 5 231.98 31.6
0 -19 5 73.19 19.9
0 -19 5 126.99 20.8
0 -19 -5 122.99 22.4
0 -19 -5 116.09 21
0 19 5 130.09 26.7
0 19 5 163.48 36.3
-5 0 6 102.39 18.1
-5 0 6 97.29 15.3
-4 0 6 176.38 20.4
-4 0 6 207.28 17.6
-3 0 6 770.72 36.4
-3 0 6 777.82 36
3 0 -6 783.92 36.9
-2 0 6 1218.68 53.39
2 0 -6 1278.97 53.89
-2 0 6 1237.88 54.69
2 0 -6 1264.67 54.19
1 0 -6 395.66 20.9
-1 0 6 471.25 21.7
0 0 -6 850.21 36.5
0 0 6 840.62 38.5
0 0 6 888.81 36.6
-1 0 -6 1637.44 64.69
1 0 6 1444.46 65.49
1 0 6 1515.75 64.09
-1 0 -6 1446.56 63.99
1 0 6 1522.45 64.79
2 0 6 103.49 10.9
-2 0 -6 85.79 11.5
-2 0 -6 93.59 9
2 0 6 89.79 10.2
-3 0 -6 267.87 21.4
3 0 6 297.67 21.7
-3 0 -6 271.87 18.2
3 0 6 258.77 20.1
4 0 6 417.96 31.5
4 0 6 469.25 32.4
-4 0 -6 494.25 29.2
-5 0 -6 71.29 21.1
5 0 6 98.99 23
-5 -1 6 -6.3 15
-5 -1 6 -11.9 11.9
-5 1 6 10.2 13.7
-4 -1 6 68.49 12.1
-4 -1 6 78.19 10.6
-4 1 6 52.89 11.6
-4 1 6 55.79 9.6
2 -1 -6 12.2 4.8
2 -1 -6 -0.1 4.2
-2 -1 6 15.3 4.9
-2 1 6 16.9 5.3
1 -1 -6 202.58 12.7
1 -1 -6 203.18 11.4
-1 1 6 204.78 10.8
-1 1 6 228.78 13.1
0 -1 6 323.07 15.4
0 -1 -6 354.16 17.5
0 -1 -6 311.17 15.2
0 -1 6 333.07 16.8
0 1 6 306.77 17.4
0 1 6 325.57 15.3
1 -1 6 33.4 4.4
-1 -1 -6 24.3 4.7
1 -1 6 28.4 4.2
-1 -1 -6 30.9 4.6
-1 1 -6 25.9 4.9
1 1 6 20.4 4.8
1 1 6 26.3 4.4
1 1 6 9.9 5.3
-1 1 -6 31.1 4
2 -1 6 49.8 8.3
2 -1 6 40.8 6.7
-2 -1 -6 34.3 7.8
-2 -1 -6 31 5.8
-2 1 -6 33.8 6
2 1 6 48.3 8.2
2 1 6 40.7 6.9
-2 1 -6 46.7 7.9
2 1 6 42.6 6.7
3 -1 6 -2.7 7.6
3 -1 6 0.3 8.1
-3 -1 -6 3.6 9.5
-3 -1 -6 39.9 7.8
3 1 6 17.9 10.1
-3 1 -6 -3.9 8.8
3 1 6 22.5 9.3
-3 1 -6 24 7.4
4 -1 6 11.7 13.3
-4 -1 -6 48.3 10.7
4 -1 6 19.4 12.1
-4 1 -6 21.8 10.7
4 1 6 50.99 13.9
4 1 6 45.4 15.3
5 -1 6 26.5 19.3
-5 -1 -6 -11.8 18.2
5 1 6 -0.2 18.4
-5 -2 6 177.48 22.4
-5 -2 6 227.98 23.1
-5 2 6 189.88 24.1
-4 -2 6 196.18 21.4
-4 -2 6 198.88 19.5
-4 -2 6 224.48 17.7
4 -2 -6 217.68 20.2
-4 2 6 205.98 17.7
-4 2 6 183.28 19.1
3 -2 -6 843.32 39.3
-3 -2 6 820.02 39.7
3 -2 -6 820.32 39.1
-3 -2 6 809.22 37.8
-3 2 6 822.62 39.8
-3 2 6 852.51 38.8
3 2 -6 824.72 38.4
-2 -2 6 859.41 37.6
-2 -2 6 906.01 39.6
2 -2 -6 896.61 39.1
-2 2 6 818.92 38.5
2 2 -6 845.92 37.8
-2 2 6 885.71 40.3
-1 -2 6 1744.93 77.69
1 -2 -6 1864.91 78.79
1 -2 -6 1872.41 78.69
-1 2 6 1927.41 79.49
-1 2 6 1786.22 77.39
0 -2 -6 663.23 34.5
0 -2 -6 679.33 31.8
0 -2 6 839.62 33
0 -2 6 801.22 32.1
0 2 6 703.53 32
0 2 6 681.53 32.1
0 2 6 712.23 33.8
-1 -2 -6 1433.96 67.39
-1 -2 -6 1511.85 68.29
1 -2 6 1753.82 67.79
1 -2 6 1771.22 69.09
-1 -2 -6 1604.04 68.29
-1 2 -6 1708.93 67.59
1 2 6 1442.56 69.49
1 2 6 1638.44 68.79
1 2 6 1478.45 67.39
-1 2 -6 1806.62 68.89
1 2 6 1507.15 68.19
-2 -2 -6 267.67 15.6
2 -2 6 238.48 16
2 -2 6 269.97 15.6
-2 -2 -6 276.07 17.6
-2 2 -6 264.27 15.8
2 2 6 268.87 17.6
-2 2 -6 253.97 16.7
2 2 6 250.27 16.7
-3 -2 -6 118.99 13.4
3 -2 6 119.49 14.7
-3 -2 -6 130.69 15.3
3 -2 6 122.99 13.6
-3 2 -6 110.69 13.8
3 2 6 123.79 16
3 2 6 114.79 14
3 2 6 127.39 13.9
-3 2 -6 126.79 16.9
4 -2 6 178.98 19.4
4 -2 6 167.38 19.5
-4 -2 -6 163.28 19.9
4 2 6 141.19 19.3
-4 2 -6 151.88 19.2
4 2 6 136.29 17.5
4 2 6 157.88 20.3
5 -2 6 221.18 26.8
-5 -2 -6 176.98 23.4
5 2 6 193.68 27.3
-5 2 -6 196.08 39.4
5 2 6 209.78 25.2
-5 -3 6 -18.5 16.1
5 -3 -6 22.6 16.8
-5 -3 6 -19.4 11.6
-5 3 6 -18.3 13.4
-4 -3 6 150.58 15.4
4 -3 -6 173.28 21
-4 -3 6 169.18 19.3
-4 -3 6 135.29 17.1
-4 3 6 154.88 17.3
-4 3 6 155.18 17.5
3 -3 -6 136.09 15.4
3 -3 -6 143.39 13.1
3 -3 -6 143.99 14.5
-3 3 6 111.59 11.3
-3 3 6 139.49 15.9
-3 3 6 147.69 12.8
-2 -3 6 67.99 6.5
2 -3 -6 83.09 10.4
2 -3 -6 67.99 8
-2 3 6 60.59 7.8
-2 3 6 75.39 9.9
1 -3 -6 9.7 5
-1 -3 6 11.2 3.8
-1 3 6 13.7 5.1
-1 3 6 18.2 4.1
0 -3 6 116.89 7.8
0 -3 -6 107.59 9.9
0 3 6 111.59 10.1
0 3 6 103.89 7.7
0 3 6 90.69 8.2
1 -3 6 220.08 12.8
1 -3 6 228.48 11.4
-1 -3 -6 197.48 12.5
-1 -3 -6 198.78 11.6
-1 -3 -6 208.88 12.8
1 3 6 208.48 13.1
1 3 6 195.48 13.8
-1 3 -6 211.58 11.1
1 3 6 192.48 12.6
-1 3 -6 207.18 12.9
1 3 6 208.68 12
2 -3 6 157.88 12.1
2 -3 6 153.38 13.1
-2 -3 -6 152.98 15.4
-2 -3 -6 144.09 11.9
-2 -3 -6 181.68 10.8
2 3 6 148.59 13.1
2 3 6 152.08 12.7
2 3 6 168.68 14.8
2 3 6 162.88 10.7
-2 3 -6 170.48 12.7
-3 -3 -6 0.3 10.4
-3 -3 -6 11.2 7.8
-3 -3 -6 12.5 6.2
3 -3 6 3.3 7.7
3 -3 6 30 8.8
-3 3 -6 4.2 9.2
3 3 6 8.9 8.7
3 3 6 -14.9 8.4
3 3 6 0.6 6.6
-3 3 -6 20.4 7.5
3 3 6 -2.9 8.3
4 -3 6 16.3 11.2
-4 -3 -6 0.5 8.4
-4 -3 -6 4.1 10.2
4 -3 6 15.2 13.8
4 3 6 8.2 11.4
-4 3 -6 26 11.1
4 3 6 2.3 13.3
-5 -3 -6 -3.9 12.3
-5 -3 -6 -18.6 18.1
5 -3 6 0.5 19
5 3 6 21.3 17.2
-5 3 -6 10.9 21
5 3 6 3 21.1
-5 -4 6 200.98 21.9
-5 -4 6 212.38 22.6
5 -4 -6 143.19 23.2
-5 4 6 212.18 25.3
4 -4 -6 260.17 24.6
4 -4 -6 261.47 21.7
-4 -4 6 266.47 22.7
-4 -4 6 248.48 18.4
-4 -4 6 252.77 26.6
-4 4 6 257.97 20.6
-4 4 6 259.87 20.6
3 -4 -6 184.28 14.3
3 -4 -6 204.78 20.1
-3 -4 6 185.18 13
3 -4 -6 178.98 16.4
-3 -4 6 196.08 16.1
3 4 -6 177.08 13.9
-3 4 6 184.38 18.2
-3 4 6 175.98 14.7
-2 -4 6 119.29 11.2
2 -4 -6 132.09 13.2
-2 4 6 140.79 13.9
-2 4 6 135.99 10.6
-1 -4 6 404.76 21.4
-1 -4 6 424.96 21.5
1 -4 -6 495.35 24
-1 4 6 471.15 22.2
-1 4 6 477.95 24.3
0 -4 6 1508.05 57.99
0 -4 -6 1261.47 59.09
0 4 6 1308.77 57.69
0 4 6 1282.77 59.49
-1 -4 -6 1061.89 49.4
-1 -4 -6 1024.1 47.5
1 -4 6 1162.08 48.8
-1 -4 -6 1076.69 48.2
1 -4 6 1141.19 47
-1 -4 -6 1092.89 48.1
-1 4 -6 1154.68 46.9
1 4 6 1053.29 49.7
-1 4 -6 1157.58 48.6
1 4 6 1082.19 47.7
1 4 6 1051.69 48.5
2 -4 6 1161.68 51.49
-2 -4 -6 1155.18 50.59
-2 -4 -6 1127.29 49.1
2 -4 6 1092.79 49.4
-2 -4 -6 1150.98 51.59
2 4 6 1082.69 50.59
-2 4 -6 1162.18 49.8
-2 4 -6 1113.99 50.89
2 4 6 1110.19 51.29
2 4 6 1115.89 51.89
2 4 6 1063.49 48.8
3 -4 6 451.05 26.4
-3 -4 -6 494.65 24.5
3 -4 6 464.85 27.7
-3 -4 -6 470.95 31.1
-3 -4 -6 481.05 26.9
-3 4 -6 417.06 28.5
3 4 6 455.95 27.8
-3 4 -6 529.35 26.6
3 4 6 473.25 29.9
3 4 6 477.85 25.2
3 4 6 463.25 28.5
-4 -4 -6 153.18 17.2
4 -4 6 149.79 20.1
4 -4 6 164.08 19.8
-4 -4 -6 194.18 21.6
4 4 6 170.98 21
4 4 6 166.38 23.4
-4 4 -6 155.08 17.4
5 -4 6 79.09 22.3
-5 -4 -6 51.29 14
-5 -4 -6 58.79 19.6
-5 4 -6 64.09 21.4
5 4 6 51.59 19.3
5 -5 -6 17.1 15.8
-5 -5 6 26.1 16.9
-5 -5 6 24.4 12.4
-5 5 6 26.9 15.9
4 -5 -6 16.9 14.8
-4 -5 6 5.1 14.1
-4 -5 6 -4.6 10.7
4 -5 -6 -9.4 9.4
-4 -5 6 18.4 7.3
-4 5 6 -3.4 9.2
-4 5 6 2.1 9.5
-3 -5 6 17.3 10.1
3 -5 -6 1 5.8
-3 -5 6 -1.9 7.2
3 -5 -6 9.3 9.9
3 -5 -6 13.9 9
-3 -5 6 6.3 5.5
-3 5 6 -0.9 9.3
-3 5 6 2.4 7.1
3 5 -6 17.6 7.3
-2 -5 6 99.69 10.8
2 -5 -6 110.49 13.4
2 -5 -6 96.79 12.1
-2 5 6 125.49 13.4
-2 5 6 100.59 10.8
-1 -5 6 153.98 10.8
1 -5 -6 174.78 13.6
-1 5 6 177.78 12.9
-1 5 6 175.68 11
-1 5 6 154.98 11.4
-1 5 6 177.78 13.8
0 -5 -6 288.67 17.2
0 -5 6 323.97 15.7
0 5 6 280.67 15.8
0 5 6 266.47 16
0 5 6 280.17 15.6
0 5 6 260.67 17.7
-1 -5 -6 23.2 5.4
-1 -5 -6 28.3 7.5
-1 -5 -6 36.5 5.6
-1 -5 -6 24.5 6
1 -5 6 34.3 4.8
1 -5 6 21.4 5.3
1 5 6 29 5.7
-1 5 -6 40.1 6.6
1 5 6 34.5 6.3
1 5 6 29.8 6.7
-1 5 -6 32.3 4.5
-2 -5 -6 81.69 11.2
-2 -5 -6 95.69 10.4
-2 -5 -6 91.99 11
2 -5 6 73.69 9.6
2 -5 6 85.99 9.4
2 5 6 71.09 9.3
-2 5 -6 87.99 10.2
2 5 6 91.99 12.5
2 5 6 99.79 10.3
-2 5 -6 82.79 9.4
-3 -5 -6 83.99 11.7
-3 -5 -6 95.89 14.9
-3 -5 -6 104.39 12.4
3 -5 6 95.19 12.5
3 -5 6 97.29 12.8
3 5 6 104.09 12.9
-3 5 -6 63.59 12.8
-3 5 -6 110.89 11.8
3 5 6 96.69 12.7
-4 -5 -6 -5.4 11.7
4 -5 6 -10.4 14.6
-4 -5 -6 20.7 10.1
-4 5 -6 2.7 12.4
4 5 6 5.2 11.9
5 -5 6 -2.2 20.1
-5 -5 -6 -4.1 14.3
-5 -5 -6 -19 18.4
5 5 6 12 18.1
-5 5 -6 -36.5 30.2
-5 -6 6 127.79 16.8
5 -6 -6 166.88 21.2
-5 -6 6 150.28 20.9
-5 6 6 153.88 21.3
-4 -6 6 150.58 17.3
4 -6 -6 156.38 18.3
4 -6 -6 142.09 21.2
-4 -6 6 131.69 15.7
-4 6 6 120.19 13.1
-4 6 6 153.08 19.3
3 -6 -6 602.44 29.3
-3 -6 6 578.94 28.6
3 -6 -6 593.74 32.9
-3 -6 6 618.84 34.6
-3 -6 6 587.64 31.5
3 -6 -6 574.24 34.1
-3 6 6 634.94 35.2
-3 6 6 635.74 31.2
3 6 -6 555.54 29.2
2 -6 -6 522.65 28.4
2 -6 -6 487.45 26.9
-2 -6 6 515.55 25.7
-2 6 6 482.45 28.7
-2 6 6 492.05 26
1 -6 -6 748.53 36.6
-1 -6 6 785.82 34.3
-1 6 6 761.42 37.1
-1 6 6 730.83 34.6
-1 6 6 746.73 35.2
-1 6 6 739.63 35.3
0 -6 6 892.01 38.5
0 -6 -6 820.12 39.8
0 6 6 841.32 39.2
0 6 6 849.81 38.7
0 6 6 845.22 38.7
0 6 6 826.12 40.4
1 -6 6 639.34 29.1
-1 -6 -6 650.63 32.2
-1 -6 -6 624.24 30.6
-1 -6 -6 652.03 30.4
-1 -6 -6 640.34 30.7
1 -6 6 611.14 30.9
1 6 6 638.74 31.2
1 6 6 632.54 32.5
1 6 6 643.34 30.5
-1 6 -6 657.13 28.8
-1 6 -6 669.33 31.3
2 -6 6 420.26 22.5
2 -6 6 428.26 24.7
-2 -6 -6 444.76 22.7
-2 -6 -6 463.05 28.7
-2 -6 -6 417.56 23.2
2 6 6 421.76 25.5
-2 6 -6 431.96 24.7
-2 6 -6 435.26 23.3
2 6 6 471.25 25.4
2 6 6 430.76 23.1
3 -6 6 226.98 20.3
-3 -6 -6 252.57 19.7
-3 -6 -6 250.97 17.7
3 -6 6 219.08 19.9
-3 -6 -6 234.78 25.8
3 6 6 256.37 21.2
-3 6 -6 273.37 19.2
3 6 6 240.98 19.5
3 6 6 215.18 21.5
-4 -6 -6 360.26 24.4
4 -6 6 348.67 30.1
-4 -6 -6 339.27 28.1
4 -6 6 305.27 29
4 6 6 276.47 28.1
4 6 6 346.67 27.9
-4 6 -6 346.27 26.7
-5 -6 -6 48.5 22.3
-5 -6 -6 32.8 16.8
5 -6 6 39.9 20.2
5 6 6 -9.7 19.3
-5 -7 6 8 12.3
5 -7 -6 -2.3 15.6
-5 -7 6 -7.9 18.4
-5 7 6 15.3 17.2
4 -7 -6 -2.6 9.1
-4 -7 6 -8.8 8.4
-4 7 6 -1.9 9.2
3 -7 -6 75.29 9.2
3 -7 -6 71.79 14.4
-3 -7 6 61.49 8.2
-3 -7 6 76.59 10.2
-3 -7 6 60.59 13.6
-3 7 6 84.59 13.7
-3 7 6 55.39 7.4
-3 7 6 60.79 9.9
3 7 -6 61.49 9.2
2 -7 -6 -5.5 8
-2 -7 6 -3.5 6.3
2 -7 -6 10.8 9.4
-2 7 6 -5.3 6.3
-2 7 6 4.9 8.5
-2 7 6 6.1 8
-1 -7 6 18.2 5.4
1 -7 -6 19.8 8
-1 7 6 11 5.7
-1 7 6 14.7 6.6
-1 7 6 9.3 5.3
-1 7 6 17.3 7.7
0 -7 6 131.39 10.3
0 -7 -6 134.19 11.6
0 -7 6 163.98 9.3
0 7 6 132.09 13.5
0 7 6 123.79 12.3
0 7 6 125.29 12.5
0 7 6 151.58 11.9
-1 -7 -6 -0.8 6.1
1 -7 6 0.4 5.1
1 -7 6 -2 4.5
-1 -7 -6 7.7 7
-1 -7 -6 1 4.6
-1 -7 -6 1 4.5
1 7 6 3.5 7
1 7 6 -6 5.5
-1 7 -6 0.9 3.7
1 7 6 0.4 6.1
2 -7 6 15.5 6.4
-2 -7 -6 8.7 9.6
-2 -7 -6 0.6 6
2 -7 6 4.7 6.7
-2 -7 -6 10.7 6.9
2 7 6 16.1 8.3
-2 7 -6 1.3 7.8
-2 7 -6 2.4 6.3
2 7 6 -6 7.4
2 7 6 18.8 7.5
-3 -7 -6 -2.9 13.6
3 -7 6 -9 9.4
-3 -7 -6 32.2 8.2
-3 -7 -6 7.2 7.8
3 -7 6 -1.5 8.9
3 7 6 13.6 10
3 7 6 -21.8 10.9
-3 7 -6 6.8 9.1
3 7 6 8.1 9.6
4 -7 6 10.5 15.2
4 -7 6 -3 13.4
-4 -7 -6 14.2 12.1
-4 -7 -6 3.1 12.9
-4 7 -6 27.9 13.3
4 7 6 20.9 21.1
4 7 6 0 14.2
5 -7 6 26.4 19.8
-5 -7 -6 35.5 22.1
5 7 6 5.1 20.7
-5 7 -6 11.2 26.5
5 -8 -6 240.58 23.9
-5 -8 6 194.58 23.1
-5 -8 6 191.28 23.7
-5 8 6 178.28 24.1
4 -8 -6 224.38 21.7
-4 -8 6 271.87 25.6
-4 -8 6 214.88 18.2
-4 8 6 227.28 19.8
-4 8 6 231.38 24.4
-3 -8 6 369.96 19.8
-3 -8 6 329.27 23.4
3 -8 -6 327.97 19.8
3 -8 -6 340.97 29
-3 8 6 369.26 23.7
3 8 -6 308.47 20.4
-3 8 6 360.46 28.3
2 -8 -6 109.39 13.1
2 -8 -6 130.59 15.7
-2 -8 6 112.89 9.4
-2 -8 6 121.79 12.5
-2 8 6 116.09 13.1
-2 8 6 108.19 12.9
-2 8 6 114.29 15.1
-1 -8 6 1170.28 50.59
1 -8 -6 1125.79 53.89
-1 8 6 1172.48 54.59
-1 8 6 1152.88 52.29
-1 8 6 1117.79 51.99
-1 8 6 1128.19 51.49
0 -8 6 367.06 17.8
0 -8 6 352.96 19.6
0 -8 -6 326.57 19.9
0 -8 -6 362.36 22.2
0 8 6 347.87 22.5
0 8 6 329.57 20.4
0 8 -6 373.06 18
0 8 6 341.17 20.1
0 8 6 349.87 20.8
-1 -8 -6 402.56 22.5
1 -8 6 390.96 21.6
-1 -8 -6 353.46 20.8
-1 -8 -6 366.76 21.6
1 -8 6 379.46 19.6
-1 -8 -6 373.06 23.6
-1 8 -6 373.16 18.9
1 8 6 375.46 21.8
1 8 6 385.76 22.4
1 8 6 393.66 24.1
-2 -8 -6 391.26 26.2
-2 -8 -6 411.16 22.9
2 -8 6 349.17 23.4
2 -8 6 408.86 22.1
-2 -8 -6 392.66 23.2
2 8 6 404.06 26
-2 8 -6 369.96 21.4
2 8 6 374.26 23.1
-2 8 -6 350.86 23.9
2 8 6 373.06 25.1
-3 -8 -6 459.75 37.9
3 -8 6 403.96 26.5
-3 -8 -6 417.96 26.6
3 -8 6 391.46 27.3
-3 -8 -6 406.76 25.5
3 8 6 407.06 27.3
3 8 6 398.66 29.6
-3 8 -6 405.66 25.3
3 8 6 442.76 28
-4 -8 -6 29.4 13.3
4 -8 6 16.3 19
4 -8 6 16.8 17
4 8 6 6.8 15.4
-4 8 -6 6.6 12.7
5 -8 6 114.29 24.3
-5 -9 6 -10.3 18
5 -9 -6 16.7 16.9
-5 -9 6 -8.7 13.7
-5 9 6 14.4 17.4
4 -9 -6 9.9 12.3
-4 -9 6 26.1 10.1
-4 -9 6 -1.1 13.9
-4 9 6 -6.3 12.8
-4 9 6 10.5 10.4
3 -9 -6 0.1 7.2
-3 -9 6 4.2 6.6
-3 -9 6 -4.8 9
3 9 -6 20.5 8.7
-3 9 6 -3 13.5
-3 9 6 -9.2 9.8
-2 -9 6 8.8 7.6
2 -9 -6 -6.5 10.8
-2 -9 6 5.8 5.5
2 -9 -6 1.5 11.5
-2 9 6 15.2 7.9
-2 9 6 9.2 10.6
-2 9 6 4.5 9.9
-1 -9 6 45.2 8.1
-1 -9 6 61.09 8
1 -9 -6 64.49 12.9
-1 9 6 67.79 8.8
-1 9 6 55.89 11.4
-1 9 6 53.69 9.1
-1 9 6 40.5 9.2
0 -9 -6 56.09 8.8
0 -9 6 69.69 7.3
0 -9 -6 63.39 11.5
0 -9 6 65.49 8.5
0 9 6 53.89 10.1
0 9 6 45.2 8.8
0 9 -6 51.79 6.9
0 9 6 62.89 10.1
0 9 6 79.79 10.2
1 -9 6 -1 6.5
-1 -9 -6 -13.2 8.2
1 -9 6 4 5.5
-1 -9 -6 3 8.8
-1 -9 -6 3.5 7
-1 -9 -6 -7.1 5.4
1 9 6 3.8 7.1
1 9 6 2.6 8.4
-1 9 -6 -0.9 4.7
1 9 6 4.7 8.2
2 -9 6 23.2 8.2
-2 -9 -6 13.6 8.4
-2 -9 -6 24.4 9.9
2 -9 6 11.3 8.4
-2 -9 -6 30.4 12.3
-2 -9 -6 11.5 7.5
-2 9 -6 9.1 9.7
-2 9 -6 19 6.8
2 9 6 15 10
2 9 6 0.8 9.5
2 9 6 9.5 10.4
-3 -9 -6 4.9 9.5
3 -9 6 13.4 11
-3 -9 -6 -7.5 10.1
3 -9 6 -1.3 10.7
3 9 6 -25.6 12.3
3 9 6 -11.7 11.1
-3 9 -6 2.7 8.9
4 -9 6 -22.7 16.8
4 -9 6 -12.2 14.8
-4 -9 -6 -8.1 15.9
-4 -9 -6 -1 14.5
4 9 6 -18.6 14.9
-4 9 -6 -2.4 13.2
-4 -10 6 215.98 21.8
4 -10 -6 232.38 23.1
-4 -10 6 172.08 21.5
-4 10 6 188.38 21.9
-3 -10 6 184.38 20.1
3 -10 -6 158.88 15.9
-3 -10 6 166.28 15
3 10 -6 127.89 16.8
-3 10 6 222.98 20.3
-3 10 6 181.88 23.1
-2 -10 6 1756.22 67.49
2 -10 -6 1451.25 73.19
-2 -10 6 1594.04 69.49
-2 10 6 1560.54 70.79
-2 10 6 1564.44 73.99
-2 10 6 1408.96 70.19
2 10 -6 1546.75 66.89
1 -10 -6 516.65 24.6
-1 -10 6 497.45 26.5
1 -10 -6 499.95 31.3
-1 10 6 568.34 32.5
1 10 -6 509.85 27
-1 10 6 511.75 28.3
-1 10 6 497.75 27.8
-1 10 6 503.15 29.2
0 -10 -6 340.27 21.6
0 -10 -6 337.87 24.3
0 -10 6 332.67 21.2
0 -10 6 360.86 22.9
0 -10 6 370.06 19.2
0 10 -6 351.86 19.4
0 10 6 370.76 22.4
0 10 6 333.67 22.2
0 10 6 347.07 24.5
0 10 6 319.87 22.6
0 10 -6 372.86 18.2
-1 -10 -6 241.88 17.9
1 -10 6 236.28 16.1
-1 -10 -6 200.48 19.8
-1 -10 -6 249.38 21.3
1 -10 6 211.28 17.1
-1 -10 -6 219.18 18.5
1 10 6 249.68 21.1
1 10 6 243.28 19.2
-1 10 -6 206.78 14.6
1 10 6 248.58 19.8
-2 -10 -6 133.89 17
2 -10 6 129.89 13.3
2 -10 6 122.09 15.8
-2 -10 -6 123.09 15.9
-2 -10 -6 105.29 16.3
-2 -10 -6 139.09 16.5
2 10 6 154.38 19.2
2 10 6 135.29 16.3
-2 10 -6 119.39 14.3
2 10 6 125.79 15.8
-3 -10 -6 165.58 18.3
-3 -10 -6 161.38 17.1
3 -10 6 174.58 20.6
-3 10 -6 160.28 18
3 10 6 198.78 23.7
4 -10 6 92.69 24
-4 -10 -6 108.09 24.1
4 -10 6 102.49 21.1
-4 -10 -6 114.59 20.6
4 10 6 117.59 20.1
-4 10 -6 113.09 17.4
4 -11 -6 1.6 13
-4 -11 6 6.1 11
-4 -11 6 0.7 14.9
-4 11 6 -25.5 17.5
-3 -11 6 11.4 11
3 -11 -6 6 8.6
-3 -11 6 12.4 8
-3 11 6 11.6 17
-3 11 6 -4.7 12.8
-2 -11 6 2.1 8.8
2 -11 -6 4.7 6.2
-2 11 6 -11.2 12.9
2 11 -6 16.4 8
-2 11 6 -0.8 9.2
2 11 -6 -5.1 7.1
1 -11 -6 0.8 13.2
-1 -11 6 14.7 8
1 -11 -6 17.5 6.1
-1 -11 6 24.4 9
1 11 -6 15 9.1
-1 11 6 2.9 10.7
-1 11 6 3 7.9
-1 11 6 12.8 8.5
0 -11 6 50.89 7.7
0 -11 -6 41.2 9.2
0 -11 -6 50.49 13.4
0 -11 6 53.79 11.2
0 -11 6 36.1 8.5
0 11 -6 53.19 7
0 11 6 21.4 11.6
0 11 6 28.9 11.1
0 11 -6 44.2 7.3
0 11 6 47.5 10.4
0 11 -6 51.79 8.3
0 11 6 44.8 10.6
-1 -11 -6 24.1 9.1
-1 -11 -6 1.8 7.4
1 -11 6 3.1 12.2
-1 -11 -6 29.2 10.7
1 -11 6 15 7.7
1 -11 6 -1.9 7.1
-1 -11 -6 17.6 12.5
1 11 6 15.4 10.2
1 11 6 5.8 10.5
1 11 6 7.5 11.2
-1 11 -6 10.8 7.4
-2 -11 -6 -5.8 9.7
-2 -11 -6 13.2 9.1
2 -11 6 -2.1 8.4
-2 -11 -6 0.5 14.3
-2 -11 -6 -6.7 12.1
2 11 6 6.3 12.3
-2 11 -6 -2.7 7.6
-3 -11 -6 23.3 13
3 -11 6 5.6 13.8
3 -11 6 2.5 12.6
-3 -11 -6 9.2 13.1
3 11 6 16 14.4
-3 11 -6 3.4 11.4
4 -11 6 15 20.3
-4 -11 -6 38.1 19.1
-4 -11 -6 -4.7 17.8
-4 11 -6 19 16.5
4 11 6 17.1 18.9
-4 -12 6 166.58 22.3
4 -12 -6 170.58 18.9
-4 -12 6 169.28 21.4
-4 12 6 182.38 25.2
-3 -12 6 260.17 27.2
3 -12 -6 281.27 21.6
-3 -12 6 305.27 20.9
-3 12 6 268.87 27.9
-3 12 6 282.17 34.2
2 -12 -6 109.99 13.2
-2 -12 6 118.09 13.7
2 12 -6 96.79 11
2 12 -6 98.09 11.4
-2 12 6 89.49 14.1
-2 12 6 97.99 18.8
-2 12 6 90.69 12.9
1 -12 -6 505.85 26.6
-1 -12 6 504.25 29.1
-1 -12 6 547.65 28.3
1 12 -6 516.85 29.5
-1 12 6 549.95 31.2
1 12 -6 523.15 26.1
-1 12 6 491.15 34.7
-1 12 6 496.85 29.5
1 12 -6 541.95 26.4
0 -12 6 434.56 24.3
0 -12 6 434.56 29.2
0 -12 -6 435.66 27.3
0 -12 6 453.65 26.6
0 -12 -6 429.66 30.9
0 12 6 465.65 28.5
0 12 6 452.35 28
0 12 -6 420.96 26.6
0 12 -6 465.95 23.6
0 12 6 440.26 31.2
0 12 -6 484.25 23.5
1 -12 6 187.38 21.1
-1 -12 -6 202.48 23.2
1 -12 6 183.98 17.9
-1 -12 -6 191.58 20.1
-1 -12 -6 217.18 25.7
1 -12 6 212.18 18.5
1 12 6 190.68 20.6
-1 12 -6 169.38 19.7
1 12 6 206.18 20.9
1 12 6 184.88 22.7
-2 -12 -6 269.97 31.3
-2 -12 -6 293.97 25.1
-2 -12 -6 297.07 23.6
2 -12 6 256.87 23.4
-2 -12 -6 286.17 26
2 -12 6 277.07 23.2
2 12 6 287.57 27.3
-2 12 -6 281.87 20.3
-3 -12 -6 298.67 28.5
3 -12 6 266.07 28
3 -12 6 281.17 28.1
-3 12 -6 260.77 24.7
3 12 6 290.47 30.6
-4 -12 -6 91.49 22.9
-4 -12 -6 58.69 21.4
4 -12 6 58.29 21.1
4 12 6 51.39 21.8
-4 12 -6 119.99 20.6
4 -13 -6 -23.7 15.1
-4 -13 6 18.8 18
-4 -13 6 -12.5 12.8
-4 13 6 8.5 19.9
3 -13 -6 22.2 11.9
-3 -13 6 6.3 14.4
-3 -13 6 11.5 9.8
-3 13 6 18.4 16.3
-3 13 6 14.3 19.6
-2 -13 6 -2.5 10.6
2 -13 -6 0.7 8.9
-2 13 6 18.6 12.6
2 13 -6 1.1 9.6
2 13 -6 10.8 9.8
-2 13 6 24.2 19
1 -13 -6 4.3 7.2
-1 -13 6 9.5 9.4
-1 -13 6 11 11.5
1 13 -6 6.8 7.5
1 13 -6 -0.8 11.4
1 13 -6 7.6 8
-1 13 6 6.2 10.6
-1 13 6 11.7 14
0 -13 -6 66.59 12
0 -13 6 42.6 15
0 -13 6 57.69 9.9
0 -13 6 53.99 11.4
0 13 -6 72.59 9.8
0 13 6 59.89 13.7
0 13 -6 55.99 9.2
0 13 -6 40.9 10.6
0 13 6 57.99 15.1
0 13 6 63.49 15.1
-1 -13 -6 124.29 15.4
1 -13 6 135.19 15.1
1 -13 6 128.19 14.4
1 -13 6 123.39 15.3
-1 -13 -6 116.79 19.1
-1 13 -6 120.19 14.9
-1 13 -6 138.39 13.5
-1 13 -6 119.39 15.1
1 13 6 103.99 17.6
2 -13 6 17.6 14.7
-2 -13 -6 8.6 11.8
-2 -13 -6 11.4 13.9
2 -13 6 19 13.2
2 13 6 31.8 16.1
-2 13 -6 14.1 9
-3 -13 -6 12.2 16.4
-3 -13 -6 34.6 15.4
3 -13 6 6.6 16.5
3 -13 6 27.9 17.8
3 13 6 19.7 17.7
-3 13 -6 13.1 13.5
-3 -14 6 127.79 19.6
-3 -14 6 118.59 15.7
3 -14 -6 110.29 15.6
-3 14 6 95.19 20.8
-3 14 6 100.19 24.6
3 14 -6 125.89 17.6
2 -14 -6 124.09 16.9
-2 -14 6 144.39 16.9
-2 14 6 158.08 20.8
-2 14 6 125.89 24.3
2 14 -6 145.69 15.1
-1 -14 6 413.56 33.3
1 -14 -6 333.67 21.9
-1 -14 6 375.86 24.6
-1 14 6 374.36 34.1
-1 14 6 371.46 29.1
1 14 -6 306.57 21.8
1 14 -6 342.77 22.6
0 -14 6 225.68 19.3
0 -14 -6 215.08 23.6
0 -14 6 211.68 27.1
0 -14 6 224.58 21.2
0 14 -6 216.08 18
0 14 6 230.38 29.9
0 14 6 214.48 24.8
0 14 -6 198.98 20.8
0 14 -6 215.78 18.6
1 -14 6 502.55 26.6
-1 -14 -6 469.35 40
-1 -14 -6 466.45 32
1 -14 6 388.36 33.2
-1 14 -6 419.16 27
1 14 6 452.75 33.2
-1 14 -6 472.95 27.2
1 14 6 528.25 36.4
-2 -14 -6 283.37 28.1
2 -14 6 292.57 27
-2 -14 -6 322.87 30.6
2 -14 6 232.88 29
2 14 6 268.47 31.2
-2 14 -6 300.77 23.1
-3 -14 -6 117.29 20.3
-3 -14 -6 92.49 21.1
3 -14 6 85.09 20.6
-3 14 -6 156.78 20.2
3 14 6 95.19 22.2
3 -15 -6 12.4 14
-3 -15 6 0.8 18
-3 15 6 -44.9 25.1
-3 15 6 -1.3 19
-2 -15 6 -10.4 13.1
2 -15 -6 -6.8 11.3
2 15 -6 10.5 12.4
-2 15 6 -15.6 20.8
-2 15 6 14.7 15.8
-1 -15 6 7.7 15.6
1 -15 -6 0.5 10.5
-1 -15 6 -10.6 10.6
-1 15 6 6.4 20.1
1 15 -6 1.8 10.5
0 -15 6 -2.1 11.3
0 -15 6 9.2 9.9
0 -15 6 36.2 18.2
0 -15 -6 -0.4 13.8
0 15 6 -15 18.8
0 15 6 -8.6 13.8
0 15 -6 2.8 12.4
-1 -15 -6 4.8 14.6
1 -15 6 2.1 12.3
1 -15 6 3.9 10.1
1 15 6 5.5 23
-1 15 -6 -8.7 11.3
1 15 6 -15.3 17.7
-1 15 -6 -7 9.9
-2 -15 -6 4.1 16.6
-2 -15 -6 -18.3 15.8
2 -15 6 13.9 24.6
2 -15 6 13.7 14.3
-2 15 -6 2.3 11.9
2 15 6 6.8 21
-3 -15 -6 34.8 21.5
3 -15 6 4.9 19.2
-3 -15 -6 5.9 18.2
3 15 6 -17 30.5
-3 15 -6 5.3 17.9
3 -16 -6 134.79 18.4
-3 -16 6 97.19 20.8
-3 16 6 136.09 28.6
-3 16 6 95.89 23.6
2 -16 -6 114.79 15.1
-2 -16 6 118.09 18
-2 16 6 74.09 20.3
-2 16 6 86.89 26.7
-1 -16 6 175.78 18.3
-1 -16 6 120.79 20.8
1 -16 -6 146.79 15.3
-1 16 6 126.29 27.6
-1 16 6 159.08 23.4
1 16 -6 135.29 20.1
0 -16 -6 338.57 36.4
0 -16 6 402.56 30.4
0 -16 6 369.16 27
0 16 6 371.36 40.3
0 16 6 388.86 34
0 16 -6 399.86 27
1 -16 6 36.3 11.9
-1 -16 -6 54.29 17.3
1 -16 6 44.9 15.1
1 16 6 27.9 18.5
-1 16 -6 44.3 13.3
-1 16 -6 41.7 14.1
1 16 6 38.9 24.7
2 -16 6 345.97 33.5
-2 -16 -6 314.47 36.9
-2 16 -6 325.67 27.3
2 16 6 354.86 39.5
2 16 6 322.07 41.6
-2 -17 6 -1.7 16.1
2 -17 -6 13.9 14.8
-2 17 6 -6.2 20.5
-2 17 6 -10.3 26.4
-1 -17 6 -17 15
1 -17 -6 0.9 12.6
-1 -17 6 9.2 14.2
-1 17 6 -30.9 24.1
-1 17 6 -7.4 19.1
1 17 -6 1.7 15
0 -17 -6 -35.2 16.5
0 -17 6 -5.4 13.2
0 -17 -6 9.2 13
0 -17 6 2 16.1
0 17 6 2.7 18.2
0 17 6 1.1 24.1
0 17 -6 0.3 11.6
1 -17 6 3.2 12.8
1 -17 6 14.6 16.5
-1 -17 -6 17.9 18.6
-1 17 -6 47.5 13.8
1 17 6 13.1 20.6
1 17 6 17 25.4
-2 -17 -6 27.5 21
2 -17 6 45.1 18.7
2 17 6 41.6 24.9
2 17 6 23.5 27.4
-2 17 -6 30.5 20.3
-1 -18 6 76.79 19.1
-1 -18 6 105.19 19.7
1 -18 -6 112.09 18.5
-1 18 6 108.59 31.4
-1 18 6 120.39 23.7
0 -18 6 268.17 36
0 -18 -6 156.58 20.4
0 -18 -6 134.49 23.4
0 -18 6 200.98 23.2
0 18 6 151.78 35
0 18 6 164.28 28.2
1 -18 6 230.88 30.7
-1 -18 -6 197.58 24.5
1 -18 6 262.57 27.4
1 18 6 287.17 32.6
1 18 6 271.87 35.5
-5 0 7 -29.1 12.6
-5 0 7 -15.7 16.2
-4 0 7 52.19 12.1
-3 0 7 19.4 7
2 0 -7 9.1 5.4
-2 0 7 16.9 5.4
1 0 -7 4.9 4.8
-1 0 7 3.6 4.9
0 0 7 13.7 3
0 0 7 0.8 5.1
1 0 7 7.7 4.3
-1 0 -7 2.9 3.5
1 0 7 7.1 3.5
1 0 7 5.4 4.7
-1 0 -7 0.7 4.2
-2 0 -7 -5.3 6.5
2 0 7 -3.7 5.7
2 0 7 -2.7 5.7
-2 0 -7 -6.9 4.3
-3 0 -7 24.1 10.9
-4 0 -7 26.3 10.6
4 0 7 16.7 14.6
4 0 7 27.7 13.7
5 0 7 48.7 18.1
5 0 7 7.3 21.5
-5 0 -7 -13.7 19.8
-5 -1 7 80.49 14.9
-5 -1 7 120.89 20.1
-5 1 7 95.39 17
-4 -1 7 446.06 28.9
-4 -1 7 474.55 26.3
-4 1 7 461.45 26.8
-4 1 7 453.45 27.5
3 -1 -7 435.86 24
3 -1 -7 436.56 23
-3 -1 7 423.66 21.7
-3 -1 7 413.26 23.4
-3 1 7 358.86 22.7
3 1 -7 398.46 23.3
-3 1 7 406.56 23.5
-3 1 7 419.16 22.4
-2 -1 7 1006.8 45.2
2 -1 -7 945.51 46.9
2 -1 -7 1065.59 44.8
-2 -1 7 1015.6 44.5
-2 -1 7 1001.4 43.6
-2 1 7 994.2 45.9
2 1 -7 1012.5 44.6
-2 1 7 1026.6 44.2
-1 -1 7 604.04 28.7
1 -1 -7 596.44 29.3
-1 1 7 674.23 29.9
-1 1 7 601.74 27
-1 1 7 576.94 27.1
0 -1 7 1974.7 80.89
0 1 7 1920.01 81.29
0 1 7 1848.02 78.89
0 1 7 1798.02 79.19
1 -1 7 723.83 31
-1 -1 -7 666.33 31.6
1 -1 7 721.03 32.3
-1 -1 -7 674.23 31.5
1 1 7 658.13 33.2
1 1 7 630.84 31.2
-1 1 -7 736.73 31
-1 1 -7 765.32 32.9
1 1 7 688.53 32.1
2 -1 7 39 7
-2 -1 -7 35.6 6.2
2 -1 7 26.6 6.9
-2 -1 -7 38.4 8
2 1 7 36.1 7.7
2 1 7 35 8.3
-2 1 -7 36.1 8.3
-2 1 -7 34.1 6.5
2 1 7 24.8 7
-3 -1 -7 586.84 33.8
3 -1 7 567.14 31.7
3 -1 7 590.54 33.1
-3 -1 -7 601.24 30.7
3 1 7 607.74 34
3 1 7 589.54 32.2
-3 1 -7 530.55 33.1
-3 1 -7 605.34 30.8
4 -1 7 219.88 22.2
4 -1 7 218.28 26.7
-4 -1 -7 259.27 22.3
4 1 7 207.68 24.1
4 1 7 176.38 20.9
-4 1 -7 279.77 22.9
4 1 7 254.67 28.1
5 -1 7 76.79 22.8
-5 -1 -7 71.99 20.3
5 1 7 84.59 22.8
-5 1 -7 51.59 23.7
5 1 7 83.79 20.4
-5 -2 7 3.2 12.3
-5 -2 7 -3.9 16.4
-5 2 7 -6.5 28.4
-5 2 7 9 13.4
-4 -2 7 43.5 12.1
4 -2 -7 17.6 12.1
-4 2 7 27.7 12.9
-4 2 7 10.3 8.4
-3 -2 7 165.48 15.6
3 -2 -7 111.59 14.3
-3 2 7 136.79 12.6
-2 -2 7 17.1 5.7
2 -2 -7 -0.8 5.6
2 -2 -7 6.3 5.4
-2 2 7 5.4 6.5
-2 2 7 8 4.7
1 -2 -7 18.8 5.3
-1 -2 7 12.4 3.7
-1 2 7 15.1 3.5
-1 2 7 12.6 5.3
-1 2 7 11.2 3.6
0 -2 -7 132.89 11.5
0 -2 7 138.39 10.1
0 -2 7 141.99 9.2
0 2 7 133.99 10.1
0 2 7 138.09 8.9
0 2 7 126.89 11.6
1 -2 7 136.39 8.6
1 -2 7 139.39 10.1
-1 -2 -7 108.09 9.9
-1 -2 -7 95.59 9.5
-1 2 -7 136.59 10.4
1 2 7 104.29 9.3
-1 2 -7 133.09 8.3
1 2 7 127.49 10.3
1 2 7 107.59 10.8
1 2 7 122.39 9.2
2 -2 7 7.9 5.7
-2 -2 -7 -5.5 4.9
2 -2 7 1.8 6.1
-2 -2 -7 -12.7 6.9
2 2 7 7.1 6.5
2 2 7 5.5 5.7
2 2 7 -6.8 6.7
-2 2 -7 16.8 8.3
-2 2 -7 0.8 5.6
3 -2 7 12.3 8.8
-3 -2 -7 6.5 12.2
3 -2 7 4.1 8.5
3 2 7 30 10.9
-3 2 -7 15.2 7.2
-3 2 -7 1.8 11
3 2 7 31.6 10.6
3 2 7 32.7 9.1
4 -2 7 37.5 15.3
-4 -2 -7 31.7 12
4 -2 7 26 15.3
4 2 7 28.5 12.7
4 2 7 52.89 20.5
-4 2 -7 33.3 12
4 2 7 47.3 16.6
5 -2 7 21.1 20.3
-5 -2 -7 18.6 17.9
5 2 7 1.4 18.3
5 2 7 32.1 25
-5 -3 7 137.89 21
-5 -3 7 109.59 14.8
-5 3 7 114.59 17.1
-5 3 7 81.49 18.2
-4 -3 7 242.78 17.7
4 -3 -7 215.18 22.5
-4 -3 7 210.88 24.8
-4 -3 7 232.28 22.9
-4 3 7 219.78 19.7
-4 3 7 180.08 23.8
-3 -3 7 639.14 34
3 -3 -7 652.93 33
3 -3 -7 654.93 33.7
-3 -3 7 623.54 30.2
-3 -3 7 634.94 32.6
3 3 -7 657.93 31.3
-3 3 7 644.24 31.6
-3 3 7 634.74 34.2
2 -3 -7 343.27 19.7
-2 3 7 312.67 17.4
-2 3 7 305.87 19.8
-1 -3 7 397.36 20.5
1 -3 -7 449.46 22.9
-1 3 7 437.06 23.3
-1 3 7 422.46 20.8
-1 3 7 416.46 20.2
0 -3 -7 1634.64 72.89
0 -3 7 1806.42 71.09
0 3 7 1618.64 71.09
0 3 7 1622.14 73.19
-1 -3 -7 780.02 38.1
-1 -3 -7 811.92 38.6
1 -3 7 930.81 37.3
1 -3 7 915.21 39.3
1 3 7 811.32 37.8
1 3 7 796.42 38.7
-1 3 -7 920.41 37.2
1 3 7 760.52 39.8
-1 3 -7 975.8 39.3
1 3 7 843.62 38.7
-2 -3 -7 673.43 30.6
-2 -3 -7 655.63 32.1
2 -3 7 662.83 31.6
2 -3 7 671.93 33.6
-2 -3 -7 692.13 34
2 3 7 653.63 30.5
2 3 7 653.93 32.5
-2 3 -7 676.03 33.2
-2 3 -7 692.63 31.8
2 3 7 664.73 33.9
2 3 7 652.73 33.9
-3 -3 -7 197.38 14.3
3 -3 7 187.58 18.4
-3 -3 -7 190.48 22.8
3 -3 7 184.28 18.3
-3 -3 -7 190.78 16.9
3 3 7 180.48 18.5
3 3 7 172.28 19.1
3 3 7 212.48 21.1
-3 3 -7 175.38 21.1
-3 3 -7 199.58 16.4
4 -3 7 133.89 19.5
-4 -3 -7 155.88 18.4
-4 3 -7 156.48 16.8
4 3 7 144.39 21.1
4 3 7 165.98 19.5
5 -3 7 92.79 22.4
-5 -3 -7 71.59 21.2
5 3 7 71.59 25.1
-5 3 -7 77.99 37.1
5 3 7 93.19 22.3
-5 -4 7 2.6 17
-5 -4 7 0.4 12.5
-5 4 7 -6.8 13.8
-5 4 7 29.5 16.6
-4 -4 7 86.69 11.3
-4 -4 7 90.49 14.6
-4 -4 7 85.39 16.4
4 -4 -7 79.99 15.7
-4 4 7 66.09 12.2
-4 4 7 88.19 12.8
-3 -4 7 275.67 15.4
3 -4 -7 188.78 19.7
-3 -4 7 280.07 24.3
-3 -4 7 277.47 19.1
3 -4 -7 245.38 19.6
-3 4 7 240.58 17.3
-3 4 7 219.78 20.6
-2 -4 7 101.69 10.8
2 -4 -7 122.49 13.3
2 -4 -7 123.89 12.9
-2 4 7 118.39 11.2
-2 4 7 107.19 12.7
-1 -4 7 36.5 5.1
1 -4 -7 39.5 7.7
-1 -4 7 33.7 5.9
-1 4 7 32.7 5.1
-1 4 7 30.4 5.9
-1 4 7 33.6 8
0 -4 -7 54.19 8.3
0 -4 7 61.89 7.3
0 4 7 62.19 7.5
0 4 7 66.39 7.5
0 4 7 61.49 8.9
0 4 7 67.19 8.3
-1 -4 -7 73.39 9.1
1 -4 7 81.29 9.3
1 -4 7 69.29 7
-1 -4 -7 92.39 8.7
-1 -4 -7 63.29 8.3
-1 4 -7 81.19 6.9
1 4 7 76.89 9
-1 4 -7 85.79 9.8
1 4 7 77.59 8.6
1 4 7 79.69 10.7
2 -4 7 102.39 12.4
-2 -4 -7 105.19 12.3
-2 -4 -7 97.79 10.8
2 -4 7 99.89 10.7
-2 -4 -7 99.69 11.7
-2 4 -7 103.09 11.6
2 4 7 119.49 10.7
2 4 7 90.29 11.5
-2 4 -7 92.59 11.3
2 4 7 127.49 13
2 4 7 110.79 13.9
-3 -4 -7 119.09 16.4
-3 -4 -7 127.09 16.3
3 -4 7 121.39 13.7
3 -4 7 129.99 17
-3 -4 -7 133.09 13.9
-3 4 -7 149.19 15.5
3 4 7 137.89 14.4
3 4 7 130.19 17.3
-3 4 -7 110.59 15.4
3 4 7 137.49 15.8
3 4 7 123.89 16.5
-4 -4 -7 37 12.7
4 -4 7 63.19 16.5
-4 -4 -7 41.7 10.2
4 -4 7 64.89 15.2
4 4 7 62.59 17.4
4 4 7 59.79 15
-4 4 -7 65.79 15.1
5 -4 7 33.2 21.7
-5 -4 -7 15.6 19.5
-5 -4 -7 -23.4 13.2
5 4 7 -35.2 19.3
-5 4 -7 -17.8 30.7
-5 -5 7 124.69 21
-5 -5 7 115.49 16.1
-5 5 7 110.09 18.1
-4 -5 7 106.69 19.1
4 -5 -7 115.89 18.4
-4 -5 7 179.48 19.3
-4 -5 7 145.39 15.2
4 -5 -7 125.89 14.6
-4 5 7 151.08 17.2
-4 5 7 169.08 18.5
3 -5 -7 245.38 21.5
-3 -5 7 262.67 16.1
-3 -5 7 257.27 19.5
3 -5 -7 250.07 21
-3 -5 7 305.57 23.3
-3 5 7 260.47 18.1
-3 5 7 285.87 23.4
3 5 -7 241.98 16.7
-2 -5 7 263.47 17.4
2 -5 -7 279.47 19.2
2 -5 -7 300.27 20.2
-2 5 7 288.37 20.3
-2 5 7 286.47 17.6
1 -5 -7 789.92 38.1
-1 -5 7 786.72 35.5
-1 -5 7 732.43 34.6
-1 5 7 780.12 35.5
-1 5 7 787.52 38.2
-1 5 7 794.42 36.7
-1 5 7 787.02 36.1
0 -5 7 1067.19 45.5
0 -5 -7 987.6 47.3
0 5 7 1016.2 47.7
0 5 7 1020.3 45.6
0 5 7 1014.3 46.1
0 5 7 1024.5 45.7
-1 -5 -7 601.44 30
1 -5 7 630.14 30.6
-1 -5 -7 615.54 30.1
1 -5 7 689.43 28.8
-1 -5 -7 615.04 32.1
-1 -5 -7 610.24 30.3
-1 5 -7 716.03 31.5
1 5 7 625.04 32.7
1 5 7 616.34 30.2
2 -5 7 392.26 24.1
-2 -5 -7 423.16 21.9
-2 -5 -7 419.16 22.6
-2 -5 -7 416.86 26.7
2 -5 7 422.16 22
-2 5 -7 385.36 23.7
-2 5 -7 396.46 24
2 5 7 422.66 25.1
2 5 7 421.56 23.6
2 5 7 385.76 21.9
-3 -5 -7 489.15 24.9
3 -5 7 466.05 27.4
3 -5 7 438.06 29.1
-3 -5 -7 396.96 32.9
-3 -5 -7 451.25 27.4
3 5 7 475.45 29.7
3 5 7 495.25 28.5
-3 5 -7 492.45 26.8
3 5 7 462.85 30.7
-4 -5 -7 115.39 13.2
-4 -5 -7 113.49 17.1
4 -5 7 99.69 17.8
4 -5 7 127.19 19.1
4 5 7 110.39 16.7
-4 5 -7 96.59 15.7
5 -5 7 25.6 21.2
-5 -5 -7 21.5 21.6
-5 -5 -7 38.7 15.4
5 5 7 30 21.7
-5 5 -7 -8.2 37.2
-5 -6 7 -1.7 12.6
-5 -6 7 2.1 17.4
-5 6 7 2.1 16
4 -6 -7 35.4 16.5
4 -6 -7 41.6 10.9
-4 -6 7 32.2 8.9
-4 6 7 20.6 12.2
3 -6 -7 -11.6 14
-3 -6 7 -7.9 8.3
-3 -6 7 -0.7 12.1
3 -6 -7 2.5 11.6
-3 -6 7 2.4 5.4
3 6 -7 12.3 7.2
-3 6 7 5.7 11.2
-3 6 7 5.4 7.9
-2 -6 7 0.4 5.9
2 -6 -7 -1 8.8
2 -6 -7 9.6 8.2
-2 6 7 -1.2 8.4
-2 6 7 8.9 6.2
-1 -6 7 3.5 4.3
1 -6 -7 7.3 7.8
-1 6 7 1.1 5.1
-1 6 7 10 4.9
-1 6 7 -6.9 5.9
-1 6 7 -6.8 6.1
0 -6 -7 109.39 13
0 -6 7 146.79 10.6
0 6 7 135.69 14.4
0 6 7 134.89 11.6
0 6 7 125.59 12.4
0 6 7 112.59 11.1
-1 -6 -7 8.5 5.2
-1 -6 -7 16 6.4
1 -6 7 7 5.6
-1 -6 -7 5.7 6
-1 -6 -7 16.6 8.1
1 -6 7 9.1 4.6
1 6 7 7.5 5.7
1 6 7 17.1 7.8
1 6 7 2.6 6.6
2 -6 7 8.8 6.4
-2 -6 -7 11.1 6.9
-2 -6 -7 -7.6 10.4
-2 -6 -7 0.4 6.2
2 -6 7 -1.9 6.9
-2 6 -7 11.8 7.9
-2 6 -7 -0.9 7.5
2 6 7 -3.9 7.8
2 6 7 10.2 7.6
-3 -6 -7 94.49 11.3
3 -6 7 108.29 14.7
-3 -6 -7 86.39 12.1
3 -6 7 83.39 12.9
-3 -6 -7 91.09 16.7
3 6 7 63.29 13.2
3 6 7 97.99 12.5
-3 6 -7 125.89 13.7
3 6 7 108.89 14.4
4 -6 7 -14.8 16
-4 -6 -7 44.7 15.3
4 -6 7 29.8 16.1
-4 -6 -7 45.2 11.1
4 6 7 41.5 15.8
-4 6 -7 29.4 13.3
4 6 7 9.3 14.1
-5 -6 -7 -14.4 16.1
-5 -6 -7 7.8 21.1
5 -6 7 21.2 21.8
5 6 7 -14 20.5
-5 -7 7 53.39 14.5
5 -7 -7 35.8 17.1
-5 -7 7 67.09 19.9
-5 7 7 56.49 16.8
-4 -7 7 265.97 27.3
4 -7 -7 295.47 22.8
-4 -7 7 232.18 19.3
-4 7 7 266.27 24.9
-3 -7 7 359.46 20.2
3 -7 -7 337.67 28.6
-3 -7 7 391.16 24.5
-3 -7 7 390.36 29.8
3 7 -7 327.87 21.2
-3 7 7 431.56 28.8
-3 7 7 396.16 24.4
-2 -7 7 251.17 18.7
2 -7 -7 282.57 22
2 -7 -7 299.17 21.1
-2 7 7 286.27 22.5
-2 7 7 283.07 18.8
-2 7 7 285.07 20.6
-1 -7 7 1261.47 52.59
1 -7 -7 1186.08 55.79
-1 7 7 1190.98 53.09
-1 7 7 1141.09 53.59
-1 7 7 1166.88 53.99
-1 7 7 1187.78 56.39
0 -7 7 435.46 22.5
0 -7 -7 416.36 25.2
0 7 7 427.46 23.6
0 7 7 439.16 23.1
0 7 7 430.26 23.7
0 7 7 429.76 25.3
-1 -7 -7 284.17 17.3
1 -7 7 282.17 17.9
1 -7 7 288.37 15.5
-1 -7 -7 267.47 17.1
-1 -7 -7 261.27 19.9
-1 -7 -7 266.37 17.8
-1 7 -7 272.77 14.6
1 7 7 295.77 18.8
1 7 7 287.57 20.3
2 -7 7 646.44 32.2
-2 -7 -7 663.83 33
2 -7 7 635.54 34.8
-2 -7 -7 679.33 33.8
-2 -7 -7 649.93 36
2 7 7 660.53 35.3
2 7 7 663.33 33.3
-2 7 -7 621.64 34.6
2 7 7 717.83 36.7
-2 7 -7 702.63 32.6
-3 -7 -7 224.48 19.3
-3 -7 -7 209.68 19.5
3 -7 7 186.28 20.1
-3 -7 -7 221.28 27.6
3 -7 7 191.18 20.8
3 7 7 218.68 20.4
-3 7 -7 193.58 18.6
3 7 7 219.68 22
3 7 7 199.28 23.7
-4 -7 -7 12.2 15.6
4 -7 7 11.1 14.8
-4 -7 -7 34 12.2
4 -7 7 34 16.9
-4 7 -7 17.5 13.4
4 7 7 21.2 15.8
-5 -8 7 16.1 13.5
5 -8 -7 -0.6 18.8
-5 -8 7 -11.4 19
-5 8 7 8.2 18
-4 -8 7 -0.5 13.5
-4 -8 7 11.2 9.5
4 -8 -7 16.6 10.8
-4 8 7 27 9.9
-4 8 7 11.6 13
3 -8 -7 -6.5 15.7
-3 -8 7 -8 6.1
-3 -8 7 8.4 9.8
3 8 -7 12.7 8
-3 8 7 12.2 13.3
-3 8 7 2.2 9.3
-2 -8 7 24.8 8.2
2 -8 -7 22.3 11.8
2 -8 -7 14.5 11.1
-2 8 7 -0.7 9.6
-2 8 7 12.2 11.6
-2 8 7 12.6 7.3
-1 -8 7 -9.2 5.3
1 -8 -7 2 8.7
-1 8 7 -4.7 6.7
-1 8 7 9.3 8.1
-1 8 7 14 6.4
-1 8 7 6.8 9.1
0 -8 -7 0.1 7.4
0 -8 7 -2 5.2
0 8 7 -1 7.8
0 8 7 1.6 7.8
0 8 7 5.2 7
0 8 7 5.9 7.3
-1 -8 -7 47.3 8.7
-1 -8 -7 46.8 8.9
1 -8 7 40.6 8.9
-1 -8 -7 48.4 8.3
-1 -8 -7 37.9 9.6
1 -8 7 64.39 7.3
1 8 7 38.3 10.8
1 8 7 53.59 10.3
-1 8 -7 54.19 6.4
1 8 7 55.79 10
-2 -8 -7 3.9 8.2
-2 -8 -7 -25.4 10.1
2 -8 7 5.6 7
2 -8 7 8.4 7
-2 -8 -7 10.5 9.5
2 8 7 14.3 9.9
2 8 7 -12 8.2
2 8 7 14.5 9.7
-2 8 -7 3.7 6.9
-2 8 -7 -2.3 10
-3 -8 -7 10.9 11.2
-3 -8 -7 8.8 9.4
3 -8 7 -0.1 9.7
3 -8 7 12.7 10.8
3 8 7 -5.1 11
3 8 7 3.7 12.7
-3 8 -7 -21.8 8.9
-4 -8 -7 -8.4 13
-4 -8 -7 29.2 16.8
4 -8 7 3.8 15.7
4 -8 7 34.3 18.2
4 8 7 29.1 16.9
-4 8 -7 -11.9 14.6
4 -9 -7 174.18 21.4
-4 -9 7 182.78 18.1
-4 -9 7 175.58 20.8
-4 9 7 181.78 20.8
-3 -9 7 160.48 19.8
-3 -9 7 193.98 14.7
-3 9 7 186.38 20.8
-3 9 7 202.18 22.6
-2 -9 7 1016 47.3
2 -9 -7 931.81 50.99
-2 9 7 1029.9 52.09
-2 9 7 1049.4 48.7
-1 -9 7 169.88 14.3
1 -9 -7 168.88 19.1
-1 9 7 184.08 16.2
-1 9 7 176.18 19.8
-1 9 7 160.18 17.5
-1 9 7 191.58 17
0 -9 7 151.08 13.5
0 -9 7 144.59 11.1
0 -9 -7 133.89 13.9
0 -9 -7 148.79 17.1
0 9 7 114.99 14.7
0 9 7 146.99 16.6
0 9 7 130.09 16.3
0 9 7 131.19 14.5
-1 -9 -7 577.84 32.1
-1 -9 -7 568.84 31.2
1 -9 7 584.14 31.2
-1 -9 -7 630.54 31.6
-1 -9 -7 616.64 33.8
1 -9 7 607.04 28.9
1 9 7 603.74 31.9
-1 9 -7 611.14 28.3
1 9 7 620.14 32.7
1 9 7 613.14 34.1
-2 -9 -7 389.26 23.9
-2 -9 -7 367.26 27.6
2 -9 7 317.57 23.9
-2 -9 -7 345.67 23.3
2 -9 7 371.96 22.4
2 9 7 358.66 24.8
2 9 7 357.16 26.8
2 9 7 342.77 27.3
-2 9 -7 378.66 21.9
3 -9 7 96.79 16.1
3 -9 7 107.59 14.6
-3 -9 -7 70.29 13.2
-3 -9 -7 76.29 14.1
3 9 7 57.99 15.6
-3 9 -7 97.69 13.4
-4 -9 -7 160.58 22.5
-4 -9 -7 188.68 20.4
4 -9 7 179.88 24.9
4 -9 7 162.38 23.3
4 9 7 159.78 22.2
-4 9 -7 223.18 22.5
4 -10 -7 -2 13.4
-4 -10 7 14 11.8
-4 -10 7 -19.6 15.2
-4 10 7 -10.3 16
-3 -10 7 10.2 7.9
-3 -10 7 6.1 12
-3 10 7 31.8 13.3
3 10 -7 7.5 9.7
-3 10 7 3.5 16.4
-2 -10 7 26 8.7
-2 10 7 12.6 13.3
-2 10 7 6 8.7
-1 -10 7 64.19 10.2
-1 -10 7 105.79 12.8
1 -10 -7 54.29 16.6
-1 10 7 35.7 11.8
-1 10 7 74.89 11
-1 10 7 69.69 14.1
-1 10 7 63.19 9.9
0 -10 7 118.19 12.9
0 -10 -7 95.59 14.9
0 -10 7 99.89 11.2
0 10 7 111.09 13.1
0 10 7 111.49 12.9
0 10 7 127.89 14
0 10 7 78.49 13.2
-1 -10 -7 18.4 10.3
1 -10 7 7.6 6.6
-1 -10 -7 5.5 8.9
-1 -10 -7 2.6 10.7
1 -10 7 18.7 7.5
-1 -10 -7 16.2 8.5
1 10 7 28.8 11.2
1 10 7 11.3 10.3
1 10 7 11.5 10.6
-1 10 -7 6 5.7
2 -10 7 11.8 8.7
-2 -10 -7 2.3 9.5
-2 -10 -7 8.4 9.3
-2 -10 -7 24.5 12.8
-2 -10 -7 -17.2 13.2
2 -10 7 17.9 8.9
2 10 7 -13.3 11.7
-2 10 -7 -10 8.1
2 10 7 0.4 11.2
2 10 7 7.4 12.4
3 -10 7 22.2 13.4
-3 -10 -7 0.5 12.9
3 -10 7 5 13.5
-3 -10 -7 3.4 12.5
-3 10 -7 -5.8 10.8
3 10 7 13.3 14.3
-4 -10 -7 9.9 18.1
4 -10 7 3.8 18
-4 -10 -7 30.4 18.7
4 10 7 6 19.7
-4 10 -7 -8.5 15.6
4 -11 -7 160.18 19.3
-4 -11 7 188.98 22.2
-4 -11 7 192.48 21.3
-4 11 7 174.48 22.8
-3 -11 7 124.69 14.8
-3 11 7 146.99 19.3
-2 -11 7 771.02 38.4
-2 11 7 810.52 45.3
-2 11 7 667.13 38.6
-2 11 7 752.72 39.8
-1 -11 7 655.13 32.6
-1 -11 7 604.04 32.9
-1 11 7 651.53 38.8
-1 11 7 645.74 35
-1 11 7 585.24 33.4
0 -11 -7 191.48 22.9
0 -11 7 210.58 15.4
0 -11 7 196.38 16.6
0 -11 -7 187.08 19
0 -11 7 178.68 20.2
0 11 -7 193.28 15.6
0 11 7 195.28 18.9
0 11 7 170.88 20.7
0 11 7 182.98 22.9
0 11 7 235.98 19.7
-1 -11 -7 189.28 17.1
-1 -11 -7 163.58 18.5
-1 -11 -7 191.88 22.7
-1 -11 -7 119.69 16.5
1 -11 7 171.28 15.9
1 -11 7 144.19 16.5
1 11 7 144.59 17.2
-1 11 -7 179.88 13.7
1 11 7 146.69 16.9
1 11 7 177.98 20
-2 -11 -7 269.97 24.4
-2 -11 -7 287.97 23.6
2 -11 7 289.77 22.8
2 -11 7 287.07 22.1
-2 -11 -7 303.27 29.7
2 11 7 272.77 27.3
-2 11 -7 304.07 20
-3 -11 -7 98.09 17.3
3 -11 7 70.89 16.4
-3 -11 -7 107.49 24.1
-3 11 -7 90.59 13.8
3 11 7 110.59 18.5
-4 -11 -7 88.49 21.4
4 -11 7 146.99 24.2
-4 -11 -7 112.39 24.1
-4 11 -7 134.19 21.1
4 11 7 109.99 30.5
4 -12 -7 11.5 14.5
-4 -12 7 -17.6 12.7
-4 -12 7 15.8 17.7
-4 12 7 20 18.1
-3 -12 7 25.8 14.4
-3 -12 7 21.8 9.8
-3 12 7 23.8 20.6
-3 12 7 18.3 14.9
-2 -12 7 19.2 10
-2 12 7 26 16.2
-2 12 7 42.2 15.2
-2 12 7 6 11.2
-1 -12 7 53.79 10.2
-1 -12 7 62.09 12.7
-1 12 7 62.99 12.9
-1 12 7 59.59 11.3
-1 12 7 67.19 16.7
0 -12 7 4.7 8
0 -12 -7 8.2 10.2
0 -12 7 6.6 12
0 -12 7 24.5 7.9
0 12 7 11.2 11.9
0 12 7 11.3 12.9
0 12 7 13.1 10.3
0 12 -7 9.7 9.9
1 -12 7 45.9 10.3
1 -12 7 80.09 11.3
1 -12 7 39.1 16.3
-1 -12 -7 43.6 15
-1 -12 -7 57.19 12
1 12 7 61.59 15.9
1 12 7 45.6 14.1
-1 12 -7 60.49 9.1
1 12 7 57.49 13.8
-2 -12 -7 7.4 12.9
-2 -12 -7 -4.3 10.6
2 -12 7 7.9 13
-2 -12 -7 9.4 17.3
-2 12 -7 30.7 9.8
2 12 7 3.1 14.5
-3 -12 -7 -3.2 14.6
-3 -12 -7 -2.4 16.6
3 -12 7 12.6 15.4
3 -12 7 -8.2 15.4
-3 12 -7 4.2 11.8
3 12 7 5.8 17.8
4 -12 7 -0.3 19.7
-4 -12 -7 -8.8 19.4
-4 -13 7 72.69 21.3
-4 -13 7 118.19 16.7
4 -13 -7 137.89 18.9
-4 13 7 140.79 23.8
-3 -13 7 89.99 17
-3 -13 7 123.19 14.1
-3 13 7 51.79 24.1
3 13 -7 87.09 14.8
-3 13 7 88.39 20.4
-2 -13 7 182.58 21.6
-2 13 7 148.99 20.8
-2 13 7 195.98 26.9
-1 -13 7 274.07 20.5
1 -13 -7 244.18 17.6
-1 -13 7 227.78 23.6
-1 13 7 292.47 24.5
1 13 -7 234.98 24.7
-1 13 7 263.67 31.2
0 -13 -7 164.98 17
0 -13 7 185.38 19.3
0 -13 7 169.98 19.2
0 -13 7 172.08 16.7
0 13 7 129.99 19.8
0 13 -7 183.58 14.9
0 13 -7 187.78 18.9
0 13 7 160.08 18.2
1 -13 7 581.74 33.8
-1 -13 -7 622.14 35.5
-1 -13 -7 543.75 39.4
1 13 7 559.14 36.4
1 13 7 595.34 39.6
-1 13 -7 582.84 30.6
-2 -13 -7 196.58 24.9
2 -13 7 247.28 24.3
2 -13 7 208.88 24.6
-2 13 -7 240.48 21.8
2 13 7 249.88 30.8
3 -13 7 122.79 21.2
-3 -13 -7 103.19 20.5
-3 -13 -7 119.39 21.2
-3 13 -7 147.99 18
3 13 7 130.69 23.6
-3 -14 7 -12.8 14.8
3 -14 -7 1.5 13.5
-3 14 7 13.8 18.9
-3 14 7 3.3 23.4
-2 -14 7 -6.6 13.6
2 -14 -7 -2.9 9.5
-2 14 7 -5.4 20.3
-2 14 7 -10.4 16.1
1 -14 -7 -15.4 8.4
-1 -14 7 -2.2 14.1
-1 -14 7 22.9 11.1
-1 14 7 -2 19.4
0 -14 7 14.1 9.1
0 -14 7 26.9 12.5
0 -14 7 -7 16.8
0 14 7 11.6 14.8
0 14 -7 27.2 9
0 14 7 17.9 17.7
0 14 -7 3 11.2
0 14 -7 4.7 8.6
-1 -14 -7 16.7 15
-1 -14 -7 35.5 19.8
1 -14 7 5.8 11.1
-1 14 -7 -9.7 14.1
1 14 7 -3.4 18.4
-2 -14 -7 5.6 16.5
-2 -14 -7 -2.4 13.8
2 -14 7 4.9 15.4
2 -14 7 22.8 15.1
-2 14 -7 9.5 11.4
2 14 7 30.3 19.9
3 -14 7 -9.1 17.2
-3 -14 -7 8.3 17.9
-3 -14 -7 19 20.9
-3 14 -7 -2.2 15.7
3 14 7 7.9 24.5
-3 -15 7 163.18 23
3 -15 -7 180.48 19.8
-3 15 7 225.28 28
-3 15 7 173.58 29.9
2 -15 -7 220.98 22.9
-2 -15 7 245.68 27.2
-2 15 7 235.08 30.3
-2 15 7 175.78 29
1 -15 -7 196.38 19.4
-1 -15 7 182.98 23.1
-1 -15 7 180.48 22.9
-1 -15 7 174.88 17.6
-1 15 7 171.48 26.2
-1 15 7 170.18 21.4
0 -15 7 273.67 40.2
0 -15 7 283.57 25.9
0 -15 -7 281.67 30
0 -15 7 289.27 22
0 15 7 291.37 39.1
0 15 -7 282.17 26.1
0 15 -7 284.57 21.7
0 15 7 277.07 31.3
-1 -15 -7 417.36 33.5
1 -15 7 348.47 29.9
1 15 7 358.26 34.7
-1 15 -7 412.36 26.5
1 15 7 366.16 39.5
-2 -15 -7 73.89 21
2 -15 7 69.79 18.4
-2 -15 -7 77.79 18.1
-2 15 -7 58.89 14.9
2 15 7 113.09 26.2
2 15 7 92.39 20.9
3 -15 7 65.79 22.5
-2 -16 7 -6.2 14.9
2 -16 -7 23.9 13.1
-2 16 7 -25.2 26
-2 16 7 30.3 19.8
-1 -16 7 10.8 15.2
-1 -16 7 7.4 20
-1 -16 7 17.5 13.8
1 -16 -7 0.3 11.4
-1 16 7 15 18.1
-1 16 7 -10.6 23.3
0 -16 -7 0.5 17
0 -16 7 -2.8 11.6
0 -16 7 5.6 14.1
0 16 7 10.3 16.7
0 16 7 -10.4 21.9
0 16 -7 5.7 11.7
1 -16 7 -4.3 11.8
1 -16 7 24.7 14.9
-1 -16 -7 -5.8 17.6
1 16 7 -2.5 19.8
1 16 7 0.5 23.9
-1 16 -7 7.7 11.9
2 -16 7 20.5 16.8
-2 -16 -7 28.1 21.9
2 16 7 9.2 22.6
2 16 7 25.7 25.3
2 -17 -7 43.3 15.4
-2 -17 7 18.5 18.3
-2 17 7 20.3 27
-2 17 7 27.8 20.8
-1 -17 7 240.18 30.1
-1 -17 7 226.48 22.1
1 -17 -7 194.68 24.5
-1 17 7 196.68 27.2
-1 17 7 214.48 33.1
0 -17 -7 316.67 26.7
0 -17 7 339.97 31.5
0 -17 7 337.87 28.3
0 17 7 333.57 36.4
0 17 7 380.26 47.4
1 -17 7 40 13.6
1 -17 7 50.19 16.6
-1 -17 -7 35.1 20.6
1 17 7 2.1 26.3
1 17 7 51.39 23.1
-1 -18 7 -3.7 16.4
1 -18 -7 21 15.5
-1 -18 7 -14.7 17.9
-1 18 7 -2.1 28
-1 18 7 60.09 26.7
0 -18 7 -13.7 16.4
0 -18 7 5.2 18.4
0 -18 -7 1.8 16.1
0 18 7 -10.6 31.1
0 18 7 7.8 22.2
-5 0 8 111.99 16.3
-5 0 8 126.39 21.6
-4 0 8 277.57 20.1
-4 0 8 242.68 22.7
3 0 -8 45.5 9.7
-3 0 8 42.3 7.5
2 0 -8 743.63 32.2
-2 0 8 646.04 30.9
-2 0 8 667.13 33.5
2 0 -8 717.83 33.2
-1 0 8 1566.64 68.69
0 0 8 995.8 45.4
1 0 8 534.75 28.1
1 0 8 588.64 27
-1 0 -8 562.24 26
1 0 8 547.15 25.9
2 0 8 576.04 31.3
2 0 8 619.94 31.2
-2 0 -8 579.04 28.5
-2 0 -8 615.14 32.9
2 0 8 566.94 29.5
3 0 8 164.28 19.4
3 0 8 131.29 15.5
-3 0 -8 103.59 16.5
-3 0 -8 116.49 14.8
-4 0 -8 174.08 21.2
4 0 8 122.79 18.4
4 0 8 154.28 20.3
5 0 8 81.99 23.3
5 0 8 94.09 25.7
-5 0 -8 116.39 23.3
-5 -1 8 15.8 17.5
-5 -1 8 -5.6 13.2
-5 1 8 -22 23.2
-5 1 8 5.7 13.7
-4 -1 8 35.5 10
-4 -1 8 29.3 11.7
-4 1 8 47.6 9.9
3 -1 -8 28 8.2
3 -1 -8 45.2 9.5
-3 -1 8 31.8 8.1
-3 -1 8 35.3 6.4
3 1 -8 45.7 9.5
-3 1 8 49.6 7.5
-3 1 8 32.4 9.8
2 -1 -8 -0.8 6.6
2 -1 -8 20.6 6.7
-2 -1 8 17.5 6.5
-2 1 8 8.2 4.7
-2 1 8 12.2 7
2 1 -8 14.1 5.9
1 -1 -8 216.28 15.5
-1 -1 8 196.88 14.9
-1 1 8 236.98 16.5
-1 1 8 223.48 12
-1 1 8 229.38 12.4
0 -1 8 294.97 17.6
0 -1 8 288.07 15.4
0 1 8 297.87 18.2
0 1 8 314.57 15
0 1 8 295.27 16.3
-1 -1 -8 2 4.3
-1 -1 -8 -1.5 4.7
1 -1 8 7 5.2
1 -1 8 6.2 4.2
1 -1 8 -0.7 4.8
-1 1 -8 -0.6 3.6
-1 1 -8 4.2 5.3
1 1 8 6 4.8
1 1 8 3.7 4.4
1 1 8 1.3 5.8
-2 -1 -8 36.2 7
2 -1 8 22.6 6.8
2 -1 8 14.6 7.5
2 1 8 24.8 8.5
-2 1 -8 27.9 7.9
-2 1 -8 11.7 8.9
2 1 8 14.3 7.8
2 1 8 29.1 7.4
-3 -1 -8 38.5 9.2
3 -1 8 30.9 10.8
3 -1 8 42.6 11.8
-3 -1 -8 -4 12.4
3 1 8 25.7 10
3 1 8 49.2 11
-3 1 -8 24.9 12.5
-3 1 -8 38.1 9.6
4 -1 8 22.9 18.8
4 -1 8 8.5 16.2
-4 -1 -8 26.2 12.9
4 1 8 33.2 15.5
4 1 8 33.5 16.8
-4 1 -8 18.2 12.3
-5 -1 -8 -0.6 19.5
5 -1 8 1.7 21.6
5 1 8 29.8 25.8
-5 1 -8 1.5 19.9
5 1 8 20.4 21.2
-5 -2 8 121.69 16.1
-5 -2 8 138.19 21.1
-5 2 8 132.59 17.8
4 -2 -8 396.56 28.3
-4 -2 8 447.56 29
-4 -2 8 395.36 24.6
-4 -2 8 414.46 29.6
-4 2 8 458.75 26.7
-4 2 8 442.76 25.6
-3 -2 8 191.38 14.1
-3 -2 8 199.68 17.6
3 -2 -8 185.98 17.9
3 -2 -8 210.88 18
3 2 -8 210.68 16.4
-3 2 8 184.98 15
-3 2 8 181.68 18.7
2 -2 -8 794.22 37.5
2 -2 -8 797.42 38.4
-2 -2 8 735.83 35.8
-2 2 8 772.82 37.9
-2 2 8 757.12 35.1
1 -2 -8 1273.27 56.49
-1 -2 8 1139.59 53.39
-1 -2 8 1255.17 55.39
-1 2 8 1281.07 54.09
-1 2 8 1292.37 54.39
-1 2 8 1310.37 57.09
0 -2 8 1297.87 53.79
0 -2 -8 1116.09 55.69
0 -2 8 1398.46 55.89
0 2 8 1275.47 56.69
0 2 8 1179.38 53.89
-1 -2 -8 345.47 19.4
1 -2 8 425.66 18.6
-1 -2 -8 338.47 20.9
1 -2 8 401.66 20.5
-1 2 -8 428.36 18.5
1 2 8 313.97 19.2
1 2 8 315.17 21.5
-1 2 -8 446.76 20.4
1 2 8 366.56 19.8
2 -2 8 694.83 33.7
-2 -2 -8 721.13 38.8
-2 -2 -8 715.33 34
2 -2 8 693.43 35.7
2 2 8 719.03 36
-2 2 -8 724.03 35.5
-2 2 -8 756.22 34
2 2 8 695.63 35.2
2 2 8 673.83 36.4
-3 -2 -8 102.39 12.9
3 -2 8 105.09 12.8
-3 -2 -8 128.59 16.4
3 -2 8 139.59 17.5
3 2 8 116.59 15
-3 2 -8 114.79 14.7
3 2 8 100.79 14.1
-3 2 -8 110.69 12.2
3 2 8 101.09 14.6
4 -2 8 150.38 20.6
4 -2 8 155.58 21.2
-4 -2 -8 177.68 22.6
4 2 8 167.58 20.7
-4 2 -8 160.98 17.6
5 -2 8 39.8 24.6
-5 -2 -8 59.19 20.8
-5 2 -8 52.69 28
5 2 8 29.5 23.1
5 2 8 38.7 25.7
-5 -3 8 -6.8 12.1
-5 -3 8 -14.1 17.6
-5 3 8 18.9 15
-4 -3 8 96.49 19.7
4 -3 -8 56.19 14.7
-4 -3 8 54.19 15.6
-4 3 8 40.1 10.6
-4 3 8 63.99 12.4
-3 -3 8 97.89 11.9
3 -3 -8 71.39 11.9
-3 -3 8 83.39 10.5
-3 -3 8 90.19 13.2
3 -3 -8 71.29 12.9
3 3 -8 129.39 13.6
-3 3 8 76.09 12.2
-3 3 8 100.19 12.8
2 -3 -8 65.19 9.4
2 -3 -8 69.29 10.2
-2 3 8 60.09 9.5
-2 3 8 36.6 7.1
-1 -3 8 46.2 6.4
1 -3 -8 60.39 8.7
-1 -3 8 38.6 5
-1 3 8 41.3 8
-1 3 8 49.99 6
-1 3 8 54.99 6.4
0 -3 8 46.3 7.1
0 -3 8 75.39 7.6
0 -3 -8 61.79 11.3
0 3 8 67.09 9.3
0 3 8 49.9 6.8
0 3 8 54.99 7.1
0 3 8 52.29 6.7
-1 -3 -8 421.76 23.4
1 -3 8 530.35 22.4
1 -3 8 528.85 24.6
-1 -3 -8 425.26 24
-1 3 -8 559.34 24.7
1 3 8 431.46 26
1 3 8 432.26 23.8
1 3 8 446.76 24
-1 3 -8 519.55 22.2
-2 -3 -8 45.2 8
2 -3 8 48.5 8.1
-2 -3 -8 68.49 16.4
2 -3 8 44.3 8.7
2 3 8 60.39 10.8
2 3 8 47.1 7.9
-2 3 -8 52.49 9.9
2 3 8 41.9 9.6
2 3 8 38.8 8.4
-2 3 -8 42.3 10
-3 -3 -8 13.4 8.9
3 -3 8 25.7 10.9
-3 -3 -8 34.4 15.1
3 -3 8 36.1 10.4
3 3 8 27 10.7
3 3 8 18.1 10.6
-3 3 -8 42.4 9.2
3 3 8 20.3 11.5
-4 -3 -8 11.9 13.4
4 -3 8 9.4 17.4
4 -3 8 29.5 14.7
-4 3 -8 23.7 12.7
4 3 8 -4 15.5
4 3 8 35.4 31.5
5 -3 8 -19.6 19.8
-5 -3 -8 -27.7 21.2
5 3 8 -6.5 23.8
5 3 8 -7.8 22.2
-5 -4 8 169.38 17.7
-5 -4 8 171.78 23.3
-5 4 8 153.88 19.7
-4 -4 8 240.48 17.8
-4 -4 8 252.47 28.3
4 -4 -8 259.17 26.7
-4 4 8 228.78 24.5
-4 4 8 237.98 22.6
3 -4 -8 770.22 39.1
-3 -4 8 746.23 41.9
3 -4 -8 763.82 39.6
-3 -4 8 731.73 34.6
-3 -4 8 720.63 38
-3 4 8 797.42 37.2
-3 4 8 781.22 40.9
2 -4 -8 54.29 9.7
-2 -4 8 69.59 9.2
2 -4 -8 66.79 10
-2 4 8 58.59 8.5
-2 4 8 57.79 10.6
-1 -4 8 351.66 17.4
-1 -4 8 316.37 17.9
-1 -4 8 327.37 17.9
-1 4 8 328.77 20.9
-1 4 8 350.36 17.8
-1 4 8 320.57 18.3
0 -4 -8 435.36 24.4
0 -4 8 474.55 21.6
0 4 8 400.86 22
0 4 8 434.96 24.6
0 4 8 432.26 21.9
0 4 8 402.96 22.2
1 -4 8 443.26 21.6
-1 -4 -8 392.06 20.8
-1 -4 -8 364.76 20.5
1 4 8 389.76 21.8
1 4 8 400.66 21
1 4 8 400.76 23.5
-2 -4 -8 358.16 20.2
2 -4 8 370.86 22.7
2 -4 8 347.87 20.7
-2 -4 -8 366.26 21.8
2 4 8 370.86 23.7
2 4 8 340.17 22.2
-2 4 -8 357.16 23.2
2 4 8 403.96 24.5
2 4 8 387.56 20.2
-3 -4 -8 427.76 22.8
3 -4 8 366.06 25
-3 -4 -8 368.36 32.1
-3 -4 -8 405.46 26
3 -4 8 363.16 27.4
3 4 8 411.96 27.8
3 4 8 427.96 23.4
-3 4 -8 418.76 24.3
3 4 8 355.86 27.9
3 4 8 372.16 28.2
-4 -4 -8 215.68 19.3
4 -4 8 199.58 21.6
-4 -4 -8 216.08 25.7
4 -4 8 225.58 29.5
4 4 8 208.58 23.9
4 4 8 198.78 27
-4 4 -8 220.78 23.7
-5 -4 -8 52.79 23.6
5 -4 8 22.3 24.1
-5 -5 8 2.5 12.3
-5 -5 8 -21.6 18.2
-5 5 8 27 15.2
-4 -5 8 7.4 9.1
-4 -5 8 11.8 14.3
4 -5 -8 26.4 16.8
-4 -5 8 -3.4 16.3
-4 5 8 10 12.5
-4 5 8 3.9 13.7
3 -5 -8 13.1 11.8
-3 -5 8 49.5 12.6
-3 5 8 3.7 11.6
-3 5 8 35.7 9.4
-2 -5 8 -1.2 7.3
2 -5 -8 9.7 9
2 -5 -8 7.3 8.8
-2 5 8 -6 8.2
-2 5 8 1.1 6.6
-1 -5 8 13 6.2
1 -5 -8 5.3 7.5
-1 -5 8 2 4.4
-1 5 8 3.6 6.9
-1 5 8 10 6
-1 5 8 10.3 7.6
-1 5 8 18.1 5.5
0 -5 -8 22.2 7.5
0 -5 8 14.9 5
0 5 8 22.3 6.2
0 5 8 24.2 7.5
0 5 8 16.8 6.9
0 5 8 23.7 6.2
-1 -5 -8 0.2 6.2
-1 -5 -8 12.1 5.7
1 -5 8 5.6 5.4
1 5 8 1.7 6.6
1 5 8 -0.5 7.8
1 5 8 11.4 8
-2 -5 -8 45.8 8.5
2 -5 8 55.69 10.3
-2 -5 -8 43.8 8.6
-2 -5 -8 49 12.1
2 -5 8 47.6 8.5
2 5 8 41.3 9.5
-2 5 -8 60.69 8.8
2 5 8 55.09 8.8
2 5 8 68.59 11.6
-2 5 -8 55.09 10.9
3 -5 8 13.2 10.3
-3 -5 -8 28.7 8
-3 -5 -8 8 10.2
-3 -5 -8 6.3 14.4
3 -5 8 19 11
-3 5 -8 14 8.9
3 5 8 16.4 12
3 5 8 14.2 12.4
3 5 8 34.3 12.2
3 5 8 9.9 10.4
4 -5 8 33.1 17.7
-4 -5 -8 1.4 11.1
-4 -5 -8 -5.9 12.7
4 -5 8 11.4 14.6
-4 5 -8 -8.1 13.5
4 5 8 -8.1 16.3
-5 -6 8 140.69 23.1
-5 -6 8 138.09 17.3
-5 6 8 216.58 23.1
-4 -6 8 120.19 17.3
-4 -6 8 100.99 11.6
-4 6 8 118.89 20.1
-4 6 8 130.79 16.3
3 -6 -8 384.36 29.3
-3 -6 8 405.96 26.2
-3 -6 8 417.16 29.8
-3 6 8 389.86 29.4
-3 6 8 437.86 24.9
-2 -6 8 619.74 33
2 -6 -8 700.13 35.3
2 -6 -8 655.83 36
-2 6 8 686.43 36.5
-2 6 8 678.83 33
-2 6 8 660.93 34.8
1 -6 -8 701.73 36.5
-1 -6 8 659.53 32.5
-1 -6 8 765.72 33.5
-1 6 8 710.63 33.8
-1 6 8 729.83 37.5
-1 6 8 674.93 34.9
-1 6 8 729.23 34.7
0 -6 8 463.35 22.7
0 -6 -8 433.66 26.2
0 6 8 438.86 26.1
0 6 8 450.25 28.6
0 6 8 424.56 23.6
0 6 8 409.96 23.8
-1 -6 -8 386.76 21.4
-1 -6 -8 365.46 24.6
-1 -6 -8 413.06 22.1
1 -6 8 380.46 21.9
1 6 8 378.56 23
1 6 8 406.26 22.6
1 6 8 422.86 25.5
-2 -6 -8 311.17 20.1
2 -6 8 304.37 21
-2 -6 -8 329.67 24.3
-2 -6 -8 320.17 19.4
2 -6 8 314.57 18.8
-2 6 -8 311.17 19.2
2 6 8 332.47 22.4
2 6 8 327.77 23.7
2 6 8 296.77 22.7
-2 6 -8 257.67 21.7
-3 -6 -8 249.18 21.5
3 -6 8 211.98 21.4
3 -6 8 214.88 21.9
-3 -6 -8 216.38 24.9
-3 -6 -8 250.67 20.1
3 6 8 197.88 24.4
-3 6 -8 253.27 19.8
3 6 8 204.68 20.9
3 6 8 258.17 24.2
-4 -6 -8 79.89 16.5
4 -6 8 87.89 20.2
4 -6 8 77.59 18.6
-4 -6 -8 89.99 12.9
4 6 8 34.4 17.3
4 6 8 84.39 19.8
-4 6 -8 81.59 15.5
-5 -7 8 -23.9 17.8
-5 -7 8 -4.3 13.4
-5 7 8 -22.7 15.4
-4 -7 8 -4.1 9.5
-4 -7 8 14.4 13.2
-4 7 8 6.4 18.2
-4 7 8 -1.3 12.9
-3 -7 8 19.7 10.4
-3 -7 8 6.8 14.7
3 -7 -8 7.7 13.1
-3 7 8 11.7 9.7
-3 7 8 11.1 14
-2 -7 8 22.7 7.9
2 -7 -8 8.4 11.1
2 -7 -8 24.7 11.6
-2 7 8 -1.7 10.6
-2 7 8 14.1 10.3
-2 7 8 15.7 9
-1 -7 8 176.58 13.7
1 -7 -8 158.98 18.2
-1 7 8 163.68 16.2
-1 7 8 175.08 13.9
-1 7 8 170.28 14.7
-1 7 8 138.09 17.1
0 -7 -8 2.9 8.3
0 -7 8 13.5 5.7
0 7 8 25.1 8.9
0 7 8 17.4 6.8
0 7 8 7.2 7.3
0 7 8 14.8 8.2
1 -7 8 30.1 8.2
-1 -7 -8 20.9 7.8
-1 -7 -8 30.7 10.4
-1 -7 -8 13.1 7.6
-1 -7 -8 26.5 7
1 7 8 30.2 9.3
1 7 8 16.7 8.5
1 7 8 24.3 9
2 -7 8 -5 7
-2 -7 -8 14.4 8
-2 -7 -8 8 8.4
2 -7 8 -9.3 6.9
-2 -7 -8 1.5 11.1
2 7 8 5.7 9.4
-2 7 -8 -1.8 10.3
-2 7 -8 -5.8 6.9
2 7 8 -7.9 9.1
2 7 8 2.8 9.4
-3 -7 -8 80.69 12.9
3 -7 8 63.79 13.3
-3 -7 -8 80.49 12.1
3 -7 8 60.89 13.1
3 7 8 83.19 16.2
3 7 8 84.09 14.1
-3 7 -8 64.19 12.5
3 7 8 80.09 15.2
4 -7 8 80.69 19.1
-4 -7 -8 67.19 14
4 -7 8 66.39 18.5
-4 7 -8 79.39 16.7
4 7 8 56.69 23.3
-4 -8 8 167.88 17.5
-4 -8 8 169.48 20.5
-4 8 8 154.58 24.6
-4 8 8 162.08 19.5
-3 -8 8 379.56 26.5
-3 8 8 394.86 32.1
-3 8 8 420.26 27.1
2 -8 -8 591.14 35.4
-2 -8 8 567.44 30.9
2 -8 -8 597.44 37
-2 8 8 614.84 31.6
-2 8 8 548.45 34.5
-1 -8 8 17.4 6.6
1 -8 -8 2.9 10.6
-1 8 8 16.3 7.5
-1 8 8 -10.5 8.7
-1 8 8 19.7 8.4
-1 8 8 12.5 10.2
0 -8 -8 896.71 47.5
0 -8 8 975.3 45.1
0 8 8 971.9 48.4
0 8 8 985.1 46.1
0 8 8 994.7 45.6
0 8 8 976.6 46.4
-1 -8 -8 451.25 25.6
-1 -8 -8 474.25 25.7
1 -8 8 457.95 25.9
-1 -8 -8 442.76 28.5
-1 -8 -8 485.45 26.4
1 8 8 428.76 26.7
1 8 8 415.66 36.7
1 8 8 480.45 30.1
-2 -8 -8 301.47 20.7
2 -8 8 276.47 21.5
-2 -8 -8 238.48 25.5
-2 -8 -8 280.77 20.9
2 -8 8 304.67 19.1
2 8 8 280.67 24.7
2 8 8 292.67 23.6
2 8 8 287.17 21.9
-2 8 -8 264.77 22.2
-3 -8 -8 155.88 19.6
3 -8 8 195.38 24.9
3 -8 8 149.29 16.9
-3 -8 -8 198.88 21.5
3 8 8 191.38 25.7
-3 8 -8 158.48 18.3
3 8 8 148.39 18.5
-4 -8 -8 161.08 22.8
-4 -8 -8 164.28 18.2
4 -8 8 165.48 23.8
-4 8 -8 185.68 21
-4 -9 8 33.8 11.1
-4 -9 8 38.3 15.7
-4 9 8 44.6 23.1
-4 9 8 44.4 16.8
-3 -9 8 12.4 11.7
-3 9 8 28.3 15.4
-3 9 8 14.6 13.3
-2 -9 8 -0.1 8.3
-2 9 8 -3.3 9.6
-2 9 8 8.4 12.8
1 -9 -8 2.2 12.1
-1 -9 8 1.1 7.3
-1 9 8 6.5 7.7
-1 9 8 13.4 10.5
-1 9 8 20.4 10.8
0 -9 -8 -4.1 10.9
0 -9 8 1.7 6.3
0 9 8 1.4 10.2
0 9 8 4.4 7.8
0 9 8 9.2 9.4
1 -9 8 137.09 14.8
-1 -9 -8 131.29 16
-1 -9 -8 151.38 14.9
-1 -9 -8 124.99 16.7
-1 -9 -8 110.09 16.2
1 -9 8 132.59 12.3
1 9 8 145.29 14.8
1 9 8 140.19 15.6
1 9 8 116.09 15.2
-2 -9 -8 8.8 9.1
-2 -9 -8 12.6 9.9
-2 -9 -8 1.8 13.1
2 -9 8 9.5 9.5
2 -9 8 8.2 8.8
2 9 8 -5.2 12.5
2 9 8 -7.1 12.5
2 9 8 -4 12.3
-3 -9 -8 -15.8 12.9
-3 -9 -8 4.3 11.6
3 -9 8 6.2 13
3 -9 8 6.6 12.4
3 9 8 -5.9 15.1
-3 9 -8 7.2 10.5
4 -9 8 -4 17.6
-4 -9 -8 -3 16.9
-4 -9 -8 -2.7 15.4
4 9 8 -9.9 21.5
-4 9 -8 9.5 15.9
-4 -10 8 85.59 17.8
-4 -10 8 85.59 15.5
-4 10 8 60.39 24.4
-4 10 8 82.19 18.9
-3 -10 8 254.67 24.6
-3 10 8 210.38 25.1
-3 10 8 237.28 31.7
-2 -10 8 453.65 27.2
-2 10 8 427.06 28.5
-2 10 8 461.85 27.9
-2 10 8 453.35 33.8
-1 -10 8 683.33 33.3
-1 10 8 684.33 40
-1 10 8 636.04 35.2
-1 10 8 679.03 36.2
0 -10 8 519.75 25.6
0 -10 8 489.45 27.9
0 10 8 491.75 29.3
0 10 8 551.14 32.4
0 10 8 442.96 29.9
0 10 8 522.25 29.8
1 -10 8 475.95 25.1
1 -10 8 443.66 27.6
-1 -10 -8 494.95 27.9
-1 -10 -8 451.85 28.1
-1 -10 -8 500.35 29
1 10 8 486.05 30
1 10 8 477.95 30
1 10 8 481.25 31.7
-2 -10 -8 190.98 20.8
2 -10 8 171.58 20.8
2 -10 8 183.48 18.5
-2 -10 -8 219.88 21.8
-2 -10 -8 214.18 20.7
2 10 8 174.08 19.7
2 10 8 234.68 26.8
-2 10 -8 236.18 21.6
3 -10 8 64.19 15.9
-3 -10 -8 51.09 15
-3 -10 -8 60.69 15.4
3 -10 8 52.19 14.8
-3 10 -8 43.4 12.9
3 10 8 81.99 19.2
4 -10 8 99.79 21.7
-4 -10 -8 81.89 23.2
-4 -10 -8 98.19 20.4
4 10 8 90.09 25.6
-4 10 -8 131.39 20.5
-4 -11 8 20.9 12.3
-4 -11 8 -1.6 17.1
-4 11 8 0.4 18.1
-4 11 8 -12.3 22.6
-3 -11 8 10.4 13.2
-3 11 8 2.7 19.4
-3 11 8 7.5 13.9
-2 -11 8 5.6 10
-2 11 8 17.9 11.8
-2 11 8 -14.6 12.1
-2 11 8 -1.5 14.8
-1 -11 8 -4 8.1
-1 -11 8 -0.2 8
-1 -11 8 16.7 10.8
-1 11 8 9.8 10.6
-1 11 8 6.5 10.1
-1 11 8 1.5 11.8
0 -11 8 40.6 7.9
0 -11 8 40.6 10.2
0 -11 -8 13.5 10
0 11 8 33.3 10.2
0 11 8 41.7 11.6
0 11 8 46.7 14.6
-1 -11 -8 6.5 12.9
-1 -11 -8 -7.2 11.1
1 -11 8 -4.1 8.6
1 -11 8 9.7 8.5
1 11 8 -11.2 10.9
1 11 8 4.5 12.8
1 11 8 12.7 13.5
-2 -11 -8 -19.1 11.7
-2 -11 -8 1.5 10.5
2 -11 8 11.3 12.3
2 -11 8 19.1 11.9
-2 -11 -8 0.7 16
-2 11 -8 -7 9.3
2 11 8 1.2 14
-3 -11 -8 11.6 18
-3 -11 -8 -11.8 18
3 -11 8 0.4 14.2
3 -11 8 34.9 24.1
3 11 8 11.7 19.7
-3 11 -8 7.5 12.7
4 -11 8 16.5 19.8
-4 -12 8 97.39 20.9
-4 -12 8 57.49 14.7
-4 12 8 92.69 30.8
-4 12 8 92.59 21.6
-3 -12 8 101.09 17.3
-3 12 8 110.99 20.4
-3 12 8 177.38 28.8
-2 -12 8 380.86 26
-2 12 8 272.17 44
-2 12 8 374.86 30.3
-1 -12 8 132.39 13.2
-1 -12 8 112.49 14.5
-1 -12 8 129.79 15.5
-1 12 8 116.79 16.1
-1 12 8 117.09 20.4
-1 12 8 112.29 16.8
0 -12 8 298.07 19
0 -12 8 269.17 25.9
0 -12 8 261.77 21.7
0 12 8 261.47 23.5
0 12 8 254.47 29.3
0 12 8 278.27 25.4
1 -12 8 331.77 23.7
-1 -12 -8 385.06 28.3
-1 -12 -8 394.96 30.7
1 -12 8 343.97 25.1
1 12 8 380.76 32.8
1 12 8 379.66 29.4
-1 12 -8 374.86 21.7
-1 12 -8 343.07 21.2
-2 -12 -8 170.08 19.9
-2 -12 -8 143.49 24
2 -12 8 174.28 17.7
2 -12 8 183.88 21.1
-2 -12 -8 141.59 18
2 12 8 174.58 22.6
-2 12 -8 157.68 19.8
3 -12 8 89.29 19.1
-3 -12 -8 93.39 19.9
-3 -12 -8 72.89 17.8
-3 12 -8 132.29 18
3 12 8 120.89 24.8
-3 -13 8 17.7 15.6
-3 13 8 41.7 18.2
-3 13 8 12.5 25.3
-2 -13 8 -7.5 12.1
-2 13 8 12.2 14.1
-2 13 8 12.1 19.3
-1 -13 8 7.5 11.4
-1 -13 8 -1.9 9
-1 -13 8 -2.5 13.8
-1 13 8 -12.1 27.5
0 -13 -8 -9.4 14.3
0 -13 8 13.2 8.5
0 -13 8 1.1 10.9
0 -13 8 12.2 16.4
0 13 8 21.1 13.9
0 13 8 -0.7 16.8
-1 -13 -8 4.7 15.5
-1 -13 -8 16.5 16.9
-1 13 -8 11.6 8.4
1 13 8 20.6 18.7
1 13 8 -17.1 15.9
-2 -13 -8 -18.2 15.2
2 -13 8 13.3 14.2
2 -13 8 -14 13.3
-2 13 -8 -5.6 10.9
-3 -13 -8 -27.4 19.5
3 -13 8 -18.5 15.9
-3 -13 -8 -3 18
-3 13 -8 2.9 15.1
3 13 8 17.9 22.8
-3 -14 8 198.18 22.2
-3 14 8 178.78 24.3
-3 14 8 148.49 29.8
-2 14 8 71.59 23.6
-2 14 8 87.99 19.2
-1 -14 8 220.68 28.2
-1 -14 8 255.97 25.5
-1 -14 8 261.17 23
-1 14 8 239.68 29.5
-1 14 8 277.97 27.8
0 -14 -8 156.78 21.4
0 -14 8 147.79 21.7
0 -14 8 197.68 18.9
0 -14 8 178.58 22.2
0 14 8 182.68 21.5
0 14 8 208.98 27.7
-1 -14 -8 90.99 18.2
1 -14 8 96.89 16.1
-1 -14 -8 80.69 20.6
1 14 8 139.09 21.6
-1 14 -8 120.99 12.8
1 14 8 93.19 23.1
2 -14 8 198.78 26.9
-2 -14 -8 177.48 22.7
-2 -14 -8 209.38 24.1
-2 14 -8 224.78 21.9
2 14 8 230.68 28.6
-3 -14 -8 112.29 24.7
3 -14 8 155.08 23.6
-3 -14 -8 139.69 25.5
3 14 8 110.39 28.5
-3 -15 8 -30 18.3
-3 15 8 27.7 21.5
-2 -15 8 2.2 15
-2 15 8 -8.3 24.4
-2 15 8 4.8 19.5
-1 -15 8 -15.6 18.3
-1 -15 8 5.7 12.1
-1 -15 8 22.4 15.2
-1 15 8 -19.5 22.6
-1 15 8 17.8 16.3
0 -15 -8 13.8 19.4
0 -15 8 -2 10.2
0 -15 8 -2.2 13.6
0 15 8 2.6 15.4
0 15 8 -34.9 19.9
-1 -15 -8 49 34.1
-1 -15 -8 32.2 17.8
1 -15 8 29.2 14.7
-1 15 -8 29.6 11.4
1 15 8 38.5 22.4
1 15 8 -9.9 18.9
2 -15 8 27.5 17.8
-2 -15 -8 17.3 19.7
2 15 8 16.5 22.2
2 15 8 32.6 23.3
-2 -16 8 77.49 17.7
-2 16 8 24.9 27
-2 16 8 54.49 23.4
1 -16 -8 308.27 25
-1 -16 8 275.67 28.4
-1 -16 8 272.97 30.8
-1 16 8 276.57 35.7
-1 16 8 246.28 33.8
0 -16 8 141.79 16.1
0 -16 -8 118.99 15
0 -16 8 124.29 20
0 16 8 135.29 29.2
0 16 8 113.39 21.8
-1 -16 -8 105.59 22
1 -16 8 150.08 21.2
1 16 8 143.29 25.6
1 16 8 159.28 30.8
2 -16 8 55.79 19.6
-2 -16 -8 73.79 23.3
2 16 8 5.4 27.9
2 16 8 36.7 23.5
1 -17 -8 15.7 14.5
-1 -17 8 -10.9 15.9
-1 -17 8 -22.1 17.8
-1 17 8 -2 27.5
-1 17 8 -33.6 20.4
0 -17 8 -3.7 14.6
0 -17 8 12.4 16.9
0 -17 -8 -2 14.3
0 17 8 3.9 21.5
0 17 8 6.9 27.9
1 -17 8 -7.8 17.4
-1 -17 -8 20.7 21.6
1 17 8 13.3 25.2
1 17 8 -3.2 31.6
-5 0 9 -4 19
-5 0 9 -1 13.4
-4 0 9 23.5 9.3
-4 0 9 20 15.8
-3 0 9 33 9.2
-3 0 9 34.5 7.4
3 0 -9 30.7 10.1
3 0 -9 7.9 8.6
-2 0 9 9 7.4
2 0 -9 14.1 7.7
-2 0 9 26.9 5
-1 0 9 -0.9 5.9
0 0 9 1.1 5.9
1 0 9 0 6.6
-1 0 -9 -7.1 4.2
1 0 9 6.6 5.9
1 0 9 1.6 4.7
-1 0 -9 2 5.8
2 0 9 2 8.6
2 0 9 -5.6 6.9
2 0 9 3.7 7.4
-2 0 -9 5.7 9.3
-2 0 -9 5.6 6.1
3 0 9 18.4 11.9
-3 0 -9 30.1 9.6
3 0 9 18.7 11.7
3 0 9 13.2 12
-3 0 -9 35.3 18
4 0 9 -14.7 17.8
4 0 9 8.4 15.7
4 0 9 3.9 17.7
-4 0 -9 26 13.8
-5 -1 9 122.39 16.4
-5 -1 9 108.09 20.8
-5 1 9 118.69 16.8
-4 -1 9 133.69 15.6
-4 -1 9 149.19 17.3
-4 1 9 144.19 17.9
-3 -1 9 271.87 16.9
3 -1 -9 296.57 21.4
3 -1 -9 283.07 21.4
-3 1 9 292.37 18.1
-3 1 9 281.57 21
3 1 -9 286.27 20
-2 -1 9 598.94 30.7
2 -1 -9 624.14 31.5
-2 1 9 614.54 31.9
-2 1 9 593.74 28.3
1 -1 -9 1034.2 47.6
-1 -1 9 1051.09 47.4
-1 1 9 1058.59 48
-1 1 9 973.8 44.4
0 -1 9 1099.79 50.19
0 -1 9 1269.37 53.19
0 1 9 1161.18 53.39
0 1 9 1152.18 50.29
0 1 9 1158.08 50.99
1 -1 9 644.54 27.5
1 -1 9 574.94 28.8
-1 -1 -9 578.34 27.8
1 -1 9 583.44 30.2
1 1 9 577.04 28.5
1 1 9 554.84 30.9
-1 1 -9 636.04 27.3
1 1 9 503.25 27.5
-1 1 -9 626.44 28.7
-2 -1 -9 197.18 18.4
2 -1 9 206.08 17.6
2 -1 9 191.38 16.7
2 -1 9 181.88 15.6
-2 -1 -9 193.28 15.9
2 1 9 202.48 18
2 1 9 179.68 15.9
-2 1 -9 187.98 15.1
-2 1 -9 239.28 18.7
2 1 9 210.58 18.6
-3 -1 -9 171.08 17.8
-3 -1 -9 145.99 20.1
3 -1 9 194.28 21.7
3 -1 9 180.28 21
3 1 9 150.48 18.7
3 1 9 188.08 19.5
3 1 9 169.08 21.2
-3 1 -9 189.18 17.7
4 -1 9 126.79 21.3
4 -1 9 135.09 23.9
-4 -1 -9 131.79 18.1
4 1 9 147.69 24.1
4 1 9 111.59 20.5
4 1 9 151.58 28.6
-4 1 -9 156.38 17.7
-5 -2 9 32.5 19.2
-5 -2 9 5.1 12.5
-5 2 9 6.4 15.5
-4 -2 9 14.6 12.7
-4 -2 9 13 13.9
4 -2 -9 17.2 13
-4 -2 9 14.7 8.6
-4 2 9 18.7 13.1
-4 2 9 16.3 10.3
3 -2 -9 38 13.2
3 -2 -9 47.4 12.1
-3 -2 9 46.8 10.3
-3 2 9 42.8 11.5
-3 2 9 49.5 7.8
2 -2 -9 206.78 21
2 -2 -9 208.68 16.7
-2 -2 9 209.88 15.3
-2 2 9 206.88 13.9
-2 2 9 185.08 17.2
-1 -2 9 50.79 8.2
-1 2 9 56.19 6.4
-1 2 9 39.1 9.7
-1 2 9 60.89 7.6
0 -2 9 127.99 12.3
0 -2 9 128.59 9.6
0 2 9 117.99 10.4
0 2 9 131.09 9.8
0 2 9 120.39 11.8
0 2 9 124.39 14.2
1 -2 9 5.5 4.9
-1 -2 -9 18.2 7
1 -2 9 13.6 5.9
-1 -2 -9 9.4 9.6
1 -2 9 4.7 7
-1 2 -9 27.6 6.9
1 2 9 -4.4 6.4
-1 2 -9 19.3 4.6
1 2 9 18.6 6
1 2 9 4.4 6.5
1 2 9 26.7 6
2 -2 9 2 7.3
-2 -2 -9 -1.6 6.5
-2 -2 -9 2.6 9
2 -2 9 -4 8.5
2 2 9 -0.4 7.9
2 2 9 -6.5 8.4
2 2 9 3.9 8
-2 2 -9 2.6 6.9
-2 2 -9 12.5 9.2
3 -2 9 96.79 14.4
-3 -2 -9 59.99 16.2
-3 -2 -9 93.39 13.5
3 2 9 80.09 15.5
3 2 9 74.09 14.3
3 2 9 92.99 14.8
4 -2 9 31.5 18
-4 -2 -9 6.9 14
4 -2 9 13.3 17.8
-4 2 -9 1.6 14.1
4 2 9 7.8 18.4
4 2 9 18.2 16
-5 -3 9 146.69 16.7
-5 -3 9 172.38 23.2
-5 3 9 122.79 19.1
-4 -3 9 319.27 27.2
4 -3 -9 258.37 25.9
-4 -3 9 218.08 18.4
-4 -3 9 206.08 27.3
-4 3 9 252.77 26.3
3 -3 -9 291.97 24
-3 -3 9 322.47 24.4
3 -3 -9 378.16 24.4
-3 -3 9 287.27 23
-3 3 9 302.37 24.4
-3 3 9 315.47 20.2
2 -3 -9 557.04 28.6
2 -3 -9 503.95 29.5
-2 3 9 514.75 29.8
-2 3 9 526.45 26.5
-1 -3 9 517.95 24.7
-1 -3 9 524.55 27.2
1 -3 -9 528.05 29
-1 3 9 551.54 30.1
-1 3 9 543.55 26.1
-1 3 9 541.65 25.7
0 -3 -9 327.37 22.5
0 -3 9 414.26 20.7
0 -3 9 422.76 19.1
0 3 9 337.27 19.9
0 3 9 341.87 22.2
0 3 9 340.57 19.9
0 3 9 353.96 19.2
-1 -3 -9 568.74 28.5
1 -3 9 674.53 28.7
-1 -3 -9 493.25 27.3
1 3 9 537.85 30.6
1 3 9 565.14 27.5
1 3 9 559.84 28.1
1 3 9 563.84 28.4
-2 -3 -9 264.87 21
2 -3 9 274.77 17.3
2 -3 9 243.48 18.8
-2 -3 -9 239.28 17.3
2 3 9 238.28 19.9
-2 3 -9 273.77 21.2
2 3 9 238.58 18.8
2 3 9 271.37 20.9
3 -3 9 514.35 31.7
-3 -3 -9 517.05 36.3
3 -3 9 535.05 33
-3 -3 -9 595.94 32.2
3 3 9 610.44 35.7
3 3 9 550.04 34.3
3 3 9 518.55 34.6
-3 3 -9 555.14 30
4 -3 9 94.39 20.5
-4 -3 -9 41.7 15.9
4 -3 9 58.19 19.9
-4 3 -9 68.09 15
4 3 9 62.79 19.5
4 3 9 28.7 19.9
-5 -4 9 -10.6 12.6
-5 -4 9 -28.1 19.1
-5 4 9 0.8 16.3
-4 -4 9 27.3 16.1
-4 -4 9 5.6 8.4
4 -4 -9 3.4 15.3
-4 -4 9 7.5 14.3
-4 4 9 0.7 14.8
-4 4 9 0.5 10.8
-3 -4 9 26.7 11.9
3 -4 -9 29.9 11.9
-3 -4 9 38.4 10.4
-3 4 9 32 9.1
-3 4 9 2.3 11.5
2 -4 -9 5.7 9.3
2 -4 -9 3.6 9.1
-2 -4 9 1.2 6.9
-2 4 9 7.8 9.7
-2 4 9 4 6.7
1 -4 -9 13.9 9
-1 -4 9 9.4 5.4
-1 -4 9 17.2 4.9
-1 -4 9 4.7 6.1
-1 4 9 13.1 8.2
-1 4 9 26.4 8.1
-1 4 9 9.1 5.4
-1 4 9 11.1 5.6
0 -4 9 6.5 5
0 -4 -9 10.8 8.6
0 -4 9 2.1 5.4
0 4 9 18.8 6.9
0 4 9 10 7.8
0 4 9 -2.5 5.2
0 4 9 12.3 6.5
-1 -4 -9 9.1 6.4
-1 -4 -9 5.4 6
1 -4 9 -5.8 5.8
-1 4 -9 10.3 13.7
1 4 9 21.1 7.1
1 4 9 8.4 7.6
1 4 9 12.3 7.2
-2 -4 -9 8.2 6.5
2 -4 9 6 7.1
-2 -4 -9 -2.4 6.5
-2 -4 -9 -6.6 10
2 -4 9 -0.8 8.3
2 4 9 -2 8.8
-2 4 -9 -0.1 9.8
2 4 9 -4.1 8.6
2 4 9 -4.4 7.1
-2 4 -9 12.1 7.2
2 4 9 -5.2 9.2
3 -4 9 3.3 11
-3 -4 -9 2.7 19.6
-3 -4 -9 7.9 10.1
3 -4 9 3 10.6
3 4 9 8 12.8
3 4 9 10.6 11.6
3 4 9 30.3 14.9
-3 4 -9 9.8 9.5
4 -4 9 15.9 16.6
4 -4 9 33.2 17.6
-4 -4 -9 1.5 14.3
4 4 9 -6.8 20.4
-4 4 -9 17.8 14.3
4 4 9 17.6 18.1
-5 -5 9 154.38 24.2
-5 -5 9 137.19 17
-5 5 9 131.19 20.4
-4 -5 9 158.48 16.3
-4 -5 9 205.68 21.7
-4 -5 9 154.98 21.2
4 -5 -9 172.58 24
-4 5 9 177.28 21.1
-4 5 9 167.58 18.2
3 -5 -9 555.74 35.2
-3 -5 9 582.74 32.7
-3 -5 9 558.84 34.8
-3 5 9 607.84 36
-3 5 9 595.14 31.6
2 -5 -9 28.5 10.8
-2 -5 9 31 8.5
-2 5 9 20.2 7.6
-2 5 9 17.1 10.5
1 -5 -9 702.13 37.4
-1 -5 9 687.43 33.4
-1 -5 9 716.33 34.1
-1 -5 9 731.63 33.8
-1 5 9 702.13 35.6
-1 5 9 757.92 38.3
-1 5 9 729.13 34.1
-1 5 9 728.43 34.8
0 -5 -9 218.78 18.8
0 -5 9 235.88 14.2
0 5 9 192.88 16.1
0 5 9 240.48 23.7
0 5 9 215.98 15.4
0 5 9 197.28 18.6
-1 -5 -9 596.94 32.3
-1 -5 -9 582.54 30.2
1 -5 9 654.13 31
1 5 9 604.74 33.9
1 5 9 622.04 30.9
1 5 9 596.34 31.4
-2 -5 -9 250.67 18.5
-2 -5 -9 243.58 23.2
2 -5 9 258.17 20.6
-2 -5 -9 270.87 17.4
2 -5 9 258.27 17.7
2 5 9 267.87 22.9
2 5 9 276.57 20.4
2 5 9 266.77 18.7
-2 5 -9 219.28 21.4
-2 5 -9 287.67 17.7
-3 -5 -9 328.87 20.9
-3 -5 -9 325.97 24.5
3 -5 9 312.07 26.1
3 -5 9 275.47 24.1
3 5 9 313.07 29.1
3 5 9 298.27 22.5
-3 5 -9 301.27 21.7
3 5 9 269.87 29.7
4 -5 9 72.39 23.4
-4 -5 -9 93.69 19.1
4 -5 9 125.09 22.1
4 5 9 74.19 21.6
-4 5 -9 98.59 17.6
-5 -6 9 6.7 20.2
-4 -6 9 -14.1 8.8
-4 -6 9 -9.4 15
-4 6 9 11.4 12.9
-4 6 9 11.2 17.6
3 -6 -9 66.69 16.4
-3 -6 9 94.79 13.9
-3 -6 9 86.89 16.2
-3 6 9 96.09 11.8
-3 6 9 86.29 15.8
2 -6 -9 62.99 13.6
-2 -6 9 103.39 12.3
-2 6 9 105.99 16.1
-2 6 9 88.59 10.9
-2 6 9 79.29 12.9
-1 -6 9 18.7 6.6
1 -6 -9 14.3 10
-1 -6 9 22.6 6.8
-1 -6 9 9.7 5.6
-1 6 9 15.3 7.3
-1 6 9 16.2 9
-1 6 9 28.6 7.2
-1 6 9 35.2 10
0 -6 -9 79.49 12.8
0 -6 9 121.19 11.5
0 6 9 115.79 18.7
0 6 9 110.59 12.1
0 6 9 114.89 12.4
0 6 9 159.38 17.8
-1 -6 -9 88.59 10.6
1 -6 9 102.79 13.5
-1 -6 -9 80.39 12.4
-1 -6 -9 88.99 14.1
1 6 9 115.59 12.7
1 6 9 89.29 11.4
1 6 9 89.89 13.2
-2 -6 -9 14.2 12.4
-2 -6 -9 9.4 8.4
2 -6 9 12.4 7.4
2 -6 9 22.8 8.8
-2 -6 -9 0.2 9
2 6 9 14.2 9.7
2 6 9 14.9 9.6
2 6 9 23.4 10.8
-2 6 -9 25.4 11.5
-2 6 -9 24.2 7.7
3 -6 9 3.3 11.7
3 -6 9 25.9 12.8
-3 -6 -9 31.8 10.8
-3 -6 -9 25.5 10.9
-3 6 -9 29.9 10
3 6 9 25.2 16.9
3 6 9 26.3 13.6
3 6 9 8.5 12.2
-4 -6 -9 55.89 17.3
-4 -6 -9 39.6 13.8
4 -6 9 39 20.6
4 6 9 58.39 20.9
-4 6 -9 100.29 17.5
-4 -7 9 119.29 13.3
-4 -7 9 136.79 19.2
-4 7 9 151.28 18.5
-4 7 9 137.09 23.3
-3 -7 9 365.36 26.4
-3 -7 9 375.86 32.2
-3 7 9 366.26 25.8
-3 7 9 342.57 30.8
-2 -7 9 512.45 28.6
2 -7 -9 460.45 32.6
-2 7 9 536.15 32.7
-2 7 9 499.35 27.8
-2 7 9 529.15 28.8
-1 -7 9 213.98 15.8
1 -7 -9 196.78 20.5
-1 -7 9 210.98 14.9
-1 -7 9 223.48 15.3
-1 7 9 225.48 16.7
-1 7 9 171.78 18.6
-1 7 9 227.78 16.6
-1 7 9 206.38 20.1
0 -7 -9 572.64 32.9
0 -7 9 585.14 28.7
0 7 9 534.75 32.3
0 7 9 538.25 30.1
0 7 9 571.74 29.8
0 7 9 542.15 29.8
-1 -7 -9 482.05 26.1
-1 -7 -9 487.65 26.3
-1 -7 -9 447.96 30.3
1 -7 9 460.75 26.5
1 7 9 483.85 28.1
1 7 9 489.35 30.3
1 7 9 457.35 27.3
2 -7 9 168.88 18.7
-2 -7 -9 210.18 19
2 -7 9 168.98 15.7
-2 -7 -9 222.38 25.1
-2 -7 -9 200.98 18.7
2 7 9 197.38 21.9
-2 7 -9 198.68 16.4
2 7 9 201.68 23.7
2 7 9 216.68 20.2
-3 -7 -9 166.98 19.8
-3 -7 -9 161.18 18
3 -7 9 148.69 16.4
3 7 9 150.18 17.9
-3 7 -9 162.48 15.8
3 7 9 181.38 22.3
-4 -7 -9 124.69 16.3
4 -7 9 85.49 23.1
-4 -7 -9 130.09 22.7
-4 7 -9 148.29 21
4 7 9 128.39 24.6
-4 -8 9 11.5 15.7
-4 -8 9 22.5 10.4
-4 8 9 11.2 13.5
-3 -8 9 -11.8 12
-3 8 9 12.4 16.6
-3 8 9 8.5 19.5
-2 -8 9 61.49 10.5
-2 8 9 51.49 11
-2 8 9 47.5 14.8
-2 8 9 59.29 11.1
-1 -8 9 153.58 15.3
1 -8 -9 155.88 20.4
-1 -8 9 154.48 14
-1 8 9 158.98 16.3
-1 8 9 161.58 16.2
-1 8 9 136.59 18.8
-1 8 9 146.59 16.2
0 -8 9 -3.6 6
0 8 9 3 9.7
0 8 9 -1.4 9.9
0 8 9 7.3 8.2
0 8 9 21.5 9.3
-1 -8 -9 13.5 9.1
-1 -8 -9 15.5 25.2
1 -8 9 8.3 8
-1 -8 -9 -1.7 7.3
1 8 9 13 11.2
1 8 9 15 11.6
1 8 9 11.4 11
2 -8 9 15 9.9
-2 -8 -9 15.8 9.5
2 -8 9 5.1 8.5
-2 -8 -9 11.4 13.4
-2 -8 -9 0.2 9.9
-2 8 -9 12.1 8.1
2 8 9 -13.8 12.9
2 8 9 -7.1 11.5
2 8 9 12.2 12.2
-3 -8 -9 19.6 12
3 -8 9 31.1 13.1
-3 -8 -9 1.1 12.4
3 -8 9 21.4 14.3
3 8 9 3.3 14.9
-3 8 -9 19 12.3
3 8 9 12.2 16.3
-4 -8 -9 -18.1 15
4 -8 9 19.8 18
-4 -8 -9 -1.6 18.2
-4 8 -9 -40.2 18.2
4 8 9 25.1 22.3
-4 -9 9 335.97 32.3
-4 9 9 304.67 30.7
-4 9 9 315.17 41.4
-3 -9 9 146.29 18.5
-3 9 9 151.18 22.2
-3 9 9 161.28 19.3
-2 -9 9 363.46 24.2
-2 9 9 370.56 24.8
-2 9 9 321.07 24.1
-2 9 9 324.87 30.2
-1 -9 9 667.43 35.3
-1 -9 9 721.43 34.3
-1 9 9 657.83 38.7
-1 9 9 757.32 41.5
-1 9 9 676.53 36.6
0 -9 9 188.98 16.3
0 9 9 179.78 18.6
0 9 9 205.98 19
0 9 9 146.19 17.2
0 9 9 177.28 21.7
1 -9 9 257.07 20
-1 -9 -9 277.27 21.6
-1 -9 -9 293.07 20.9
-1 -9 -9 295.87 20.9
1 9 9 253.37 23.4
1 9 9 232.68 23.1
1 9 9 264.67 26.3
2 -9 9 392.46 25
2 -9 9 397.76 28.2
-2 -9 -9 409.76 27
-2 -9 -9 424.96 26.8
-2 -9 -9 415.06 32.7
2 9 9 387.36 31.8
-2 9 -9 413.86 24.3
2 9 9 403.46 29
2 9 9 430.46 32.8
3 -9 9 44.1 15.3
3 -9 9 77.09 14.9
-3 -9 -9 51.59 14.6
-3 -9 -9 46.7 14.3
-3 9 -9 45.9 12.4
4 -9 9 35.5 17.9
-4 -9 -9 54.59 21.1
-4 -9 -9 50.59 29.4
4 9 9 29.1 24.5
-4 9 -9 65.29 21
-4 -10 9 7.9 18.1
-4 10 9 -12.3 24.4
-4 10 9 -16.6 17.6
-3 -10 9 -5.8 13.4
-3 10 9 7.9 13.4
-3 10 9 2.4 19
-2 -10 9 26.5 10.6
-2 10 9 5.8 15.3
-2 10 9 7.9 11.7
-2 10 9 14.3 12
-1 -10 9 1.4 7.8
-1 -10 9 -1.1 8.5
-1 10 9 -0.6 10.1
-1 10 9 18.8 10.2
-1 10 9 -9.5 12.6
0 -10 9 26.8 7.9
0 10 9 -0.3 10.1
0 10 9 16.7 11.7
0 10 9 16.2 12.2
1 -10 9 3.5 8.5
-1 -10 -9 21.4 11.4
-1 -10 -9 18.1 11.3
1 10 9 -5.5 13
1 10 9 11.5 13.9
2 -10 9 13.8 11.5
2 -10 9 -6.3 9.9
-2 -10 -9 -4.7 16.5
-2 -10 -9 10.4 10.9
-2 -10 -9 -1 11.4
2 10 9 6.8 16.8
-2 10 -9 22.2 9.6
-3 -10 -9 -0.7 14.5
-3 -10 -9 22.3 16.2
3 -10 9 -16 13.9
3 10 9 8 19.8
-3 10 -9 -21.5 12.4
-4 -11 9 88.49 19.2
-4 11 9 41.3 28
-4 11 9 65.39 19.6
-3 -11 9 147.89 19
-3 11 9 195.88 28.2
-3 11 9 156.58 21.5
-2 -11 9 363.46 27
-2 11 9 369.66 29.2
-2 11 9 382.96 28.3
-1 -11 9 442.66 25.6
-1 -11 9 376.76 30.4
-1 -11 9 398.06 27.2
-1 11 9 373.96 28
-1 11 9 463.55 34.8
-1 11 9 410.76 28.8
0 -11 9 336.57 19.9
0 -11 9 315.87 22.3
0 11 9 286.77 25.1
0 11 9 311.37 28.5
0 11 9 288.37 25.9
-1 -11 -9 381.76 36.7
1 -11 9 509.85 31.3
-1 -11 -9 549.85 32.5
1 11 9 536.85 33.6
1 11 9 522.95 37.5
1 11 9 538.15 35.2
-2 -11 -9 51.89 13
2 -11 9 64.09 12.5
2 -11 9 56.89 14.5
-2 -11 -9 59.09 15.4
-2 -11 -9 66.49 19.8
2 11 9 57.99 22.4
-2 11 -9 33.8 10.7
-3 -11 -9 43.7 17.4
-3 -11 -9 39.9 18
3 -11 9 63.19 18.4
-3 11 -9 71.29 16.5
3 11 9 54.19 23.4
-3 -12 9 24.4 15.2
-3 12 9 3.3 23.6
-3 12 9 27.9 17.1
-2 -12 9 -9.9 12.4
-2 12 9 -9.9 19
-2 12 9 -12.3 13.6
-1 -12 9 30.7 10.2
-1 -12 9 45.3 14.2
-1 -12 9 49.4 12.7
-1 12 9 58.19 14.7
-1 12 9 13.5 20.1
0 -12 9 19.9 8.6
0 -12 9 19.5 10
0 12 9 -9.1 13.4
0 12 9 4.2 16.5
0 12 9 -3.5 15.2
-1 -12 -9 36.1 14.3
1 -12 9 38 14.9
-1 -12 -9 21.6 14.9
1 12 9 41.3 15.3
1 12 9 57.89 25.1
-2 -12 -9 -17.4 25.7
-2 -12 -9 -15.3 14.2
2 -12 9 11.1 14.2
2 -12 9 -29.4 12.4
-2 12 -9 -5 11.6
2 12 9 6.4 19.4
3 -12 9 20.2 17.3
-3 -12 -9 19.9 18
-3 -12 -9 -10.9 17.8
-3 12 -9 -2.4 18.8
3 12 9 -24.2 22.6
-3 -13 9 154.88 20.4
-3 13 9 112.59 29.5
-3 13 9 145.49 21.9
-2 -13 9 244.28 26.2
-2 13 9 186.58 28
-2 13 9 236.68 28.6
-1 -13 9 74.79 12.5
-1 -13 9 67.89 17.1
-1 13 9 103.19 17.9
-1 13 9 39.3 19.9
0 -13 9 175.58 22.5
0 -13 9 188.48 18.5
0 13 9 160.28 20.7
0 13 9 182.68 26.4
-1 -13 -9 189.78 21.9
-1 -13 -9 123.39 20.3
1 -13 9 191.28 20.8
1 13 9 163.18 26.1
1 13 9 213.08 26.5
-2 -13 -9 221.68 24.5
-2 -13 -9 225.08 24.2
2 -13 9 264.07 28.2
2 13 9 245.38 30.5
-3 -13 -9 113.09 23.2
-3 -13 -9 78.39 22.7
3 -13 9 86.29 21.1
3 13 9 133.89 29.5
-3 -14 9 36.4 18.7
-3 14 9 -19 26.6
-3 14 9 36.8 20.4
-2 -14 9 57.49 15.3
-2 14 9 22.5 18.1
-2 14 9 65.59 25.4
-1 -14 9 9.2 11.5
-1 -14 9 7 18.2
-1 -14 9 -1.4 13.2
-1 14 9 4.7 21.4
-1 14 9 -2.9 17.5
0 -14 9 17.6 12.9
0 -14 9 23.3 10.7
0 14 9 25.6 21.2
0 14 9 37.4 16.5
-1 -14 -9 12.3 17.3
-1 -14 -9 35.2 19.9
1 -14 9 8.1 13.8
1 14 9 5.5 21.5
1 14 9 -0.2 17.2
2 -14 9 18.6 16.5
-2 -14 -9 9 17.4
-2 -14 -9 11 18.6
2 14 9 -3.6 24.9
-2 -15 9 78.99 19.3
-2 15 9 63.09 22
-2 15 9 52.79 27.8
-1 -15 9 330.57 30.3
-1 -15 9 325.17 28
-1 15 9 293.17 34.6
-1 15 9 308.27 34.4
0 -15 9 108.09 19.5
0 -15 9 138.79 14.1
0 -15 -9 94.99 14.6
0 15 9 95.59 21.7
0 15 9 123.39 27.2
1 -15 9 140.09 21.3
-1 -15 -9 120.79 22.9
1 15 9 107.69 21.2
1 15 9 126.59 28.1
-2 -15 -9 122.79 25.2
2 -15 9 171.98 22.2
2 15 9 157.28 27.2
2 15 9 135.49 31
-1 -16 9 14.4 29.3
-1 -16 9 -30.7 16.9
-1 16 9 -18 28.2
-1 16 9 22.5 20.9
0 -16 -9 -6.4 13
0 -16 9 -13.1 16.6
0 -16 9 -6.7 12.9
0 16 9 27.9 27.7
0 16 9 15.5 19.9
1 -16 9 22.3 17.8
-1 -16 -9 8.9 22.2
1 16 9 0.6 20.1
1 16 9 58.19 29.1
0 -17 -9 194.08 20.2
0 -17 9 237.38 26
-5 0 10 348.57 28
-4 0 10 294.67 22
3 0 -10 35.9 11.7
-3 0 10 45.1 7.7
-3 0 10 37.3 10.5
3 0 -10 32.7 10.5
2 0 -10 272.37 20.2
-2 0 10 291.37 20
-1 0 10 896.41 43.3
0 0 10 355.26 19.9
0 0 10 375.86 22.9
1 0 10 430.36 23.4
-1 0 -10 442.86 21.9
1 0 10 421.66 25.6
1 0 10 430.76 21.8
-1 0 -10 432.76 23.3
2 0 10 1191.38 53.39
2 0 10 1113.89 51.19
-2 0 -10 1051.49 52.49
-2 0 -10 1105.79 50.59
2 0 10 1088.49 53.49
3 0 10 51.29 14.1
-3 0 -10 60.39 11.1
3 0 10 53.89 14.3
3 0 10 44.1 16.8
4 0 10 117.49 24.6
4 0 10 133.19 23.3
4 0 10 147.49 22.5
-4 0 -10 170.88 19.5
-5 -1 10 8.3 19.3
-5 -1 10 -2.7 14
-5 1 10 23.5 16.2
-4 -1 10 40.9 10.5
-4 -1 10 17.9 13.2
-4 1 10 47.6 12.3
3 -1 -10 3.4 11.9
3 -1 -10 3.5 10.9
-3 -1 10 5.8 6.5
-3 1 10 -3.1 10
-3 1 10 7.8 7
2 -1 -10 3.9 9.7
-2 -1 10 8.1 8.2
-2 1 10 26.7 9.3
-2 1 10 17.7 6.2
-1 -1 10 12.7 7.4
-1 1 10 11.9 8.3
0 -1 10 99.39 12.6
0 1 10 88.39 9.1
0 1 10 90.09 12.3
0 1 10 69.29 9.4
0 1 10 81.39 9.6
-1 -1 -10 53.89 7.8
1 -1 10 63.19 9.1
-1 -1 -10 58.89 8.5
1 -1 10 88.09 9.5
1 -1 10 52.69 9.3
-1 1 -10 86.59 9.3
1 1 10 49.1 9.9
1 1 10 74.59 9.3
1 1 10 53.59 8.1
-1 1 -10 92.99 12.2
-2 -1 -10 36.1 8.7
2 -1 10 8.3 8.1
2 -1 10 13.1 9.9
2 -1 10 -2.1 9.5
-2 -1 -10 -10.6 11
-2 1 -10 3.8 10.5
-2 1 -10 5.9 7.7
2 1 10 19.9 9.8
2 1 10 0.3 10.3
2 1 10 20 8.8
3 -1 10 42.7 13.9
-3 -1 -10 19 10.5
3 -1 10 60.99 13.6
3 -1 10 28.3 12.6
3 1 10 12.2 12.8
3 1 10 29.5 13.5
3 1 10 35.5 13.6
-3 1 -10 41.5 10.3
4 -1 10 -25.6 22.3
4 -1 10 12.1 18.9
-4 -1 -10 17.8 14.6
4 -1 10 35.5 19.3
-4 1 -10 15.1 15.2
4 1 10 26.2 19.3
4 1 10 9.3 19.3
-5 -2 10 75.69 21.4
-5 -2 10 28.6 14.1
-5 2 10 52.79 16.7
4 -2 -10 340.77 29.3
-4 -2 10 304.17 29.3
-4 -2 10 303.47 39.9
-4 -2 10 288.67 20.8
-4 2 10 248.68 28.2
-4 2 10 230.28 27.3
3 -2 -10 174.18 20.5
3 -2 -10 168.88 21.5
-3 -2 10 140.89 17.5
-3 2 10 147.39 17.4
-3 2 10 155.18 14.9
-2 -2 10 620.14 32.8
2 -2 -10 664.23 34.7
-2 2 10 620.44 30.4
-2 2 10 638.04 35.1
-1 -2 10 980 43.9
1 -2 -10 891.01 45.2
-1 2 10 885.71 41.3
-1 2 10 932.31 41.2
-1 2 10 930.71 45.5
0 -2 10 546.45 25.7
0 -2 10 614.24 29
0 2 10 499.65 26.8
0 2 10 527.15 25.6
0 2 10 535.05 29.9
0 2 10 480.35 26.4
1 -2 10 313.47 19.7
-1 -2 -10 244.48 19.9
1 -2 10 329.67 18.6
1 -2 10 303.77 15.9
-1 -2 -10 230.68 17
1 2 10 268.67 18.1
1 2 10 263.47 18.1
-1 2 -10 322.67 19
1 2 10 230.68 16.9
1 2 10 263.67 21
2 -2 10 727.63 35.4
2 -2 10 671.73 33.2
2 -2 10 714.63 36.5
-2 -2 -10 665.03 33.3
-2 -2 -10 617.04 35.6
2 2 10 649.93 37.4
2 2 10 649.74 36.3
-2 2 -10 749.62 40.4
2 2 10 617.74 34.7
-2 2 -10 632.74 35.8
-3 -2 -10 162.08 19.3
3 -2 10 180.08 20.8
3 -2 10 172.08 17.4
-3 2 -10 159.08 16
3 2 10 159.88 19.1
3 2 10 173.58 21.1
3 2 10 146.89 20.5
-4 -2 -10 68.69 17
4 -2 10 85.19 19.6
-4 2 -10 65.49 16.6
4 2 10 69.89 20.6
4 2 10 85.89 22.1
-5 -3 10 16.9 14
-5 -3 10 -0.3 19.4
-5 3 10 -8.9 16.2
-4 -3 10 41.8 15.6
4 -3 -10 16.8 16.3
-4 -3 10 5.5 8.8
-4 -3 10 -2.2 15
-4 3 10 15.9 12
-4 3 10 8.9 15.7
-3 -3 10 213.78 21.6
3 -3 -10 141.09 17.4
-3 3 10 163.48 19
-3 3 10 173.78 16.4
2 -3 -10 0.8 10.7
-2 3 10 5 6.1
-2 3 10 5.1 10.2
-2 3 10 4.1 6.8
-1 -3 10 32.3 6
1 -3 -10 32.6 10.2
-1 -3 10 26.5 7.2
-1 3 10 44.7 7.5
-1 3 10 35.9 10.4
-1 3 10 29.4 6.6
0 -3 10 2.6 6.4
0 -3 10 -3 5
0 3 10 6.1 5.9
0 3 10 -8.1 7.1
0 3 10 -6.6 5.8
0 3 10 -5.7 7.5
1 -3 10 16.4 7.5
-1 -3 -10 14.7 6.7
1 -3 10 13.7 6.9
1 3 10 27.7 7.6
1 3 10 19.5 9.1
1 3 10 16 7.6
1 3 10 20.9 7.2
2 -3 10 29.7 9.2
-2 -3 -10 4.9 11.9
-2 -3 -10 27.3 8.8
2 -3 10 29.2 8.4
-2 3 -10 37.7 11.3
2 3 10 7.4 9.6
2 3 10 26.1 10.7
2 3 10 32.6 11.8
-2 3 -10 33.6 8.8
3 -3 10 16.1 12.7
3 -3 10 17.9 12.6
-3 -3 -10 7.6 11.4
3 3 10 18.8 14.3
3 3 10 35.3 14.1
3 3 10 10.1 14.8
-3 3 -10 13.7 9.7
-4 -3 -10 24.2 17.5
4 -3 10 1.2 18.8
-4 3 -10 21.8 15.8
4 3 10 -15.9 19.9
4 3 10 7.9 19.2
-4 -4 10 234.98 27.8
4 -4 -10 209.58 22.8
-4 -4 10 220.28 18.3
-4 -4 10 237.98 31.3
-4 4 10 228.58 22.3
-4 4 10 201.78 27.6
-3 -4 10 257.97 22.8
3 -4 -10 244.58 25.9
-3 -4 10 278.57 23.6
-3 4 10 255.97 20
-3 4 10 265.77 25.4
-2 -4 10 651.13 36.5
2 -4 -10 735.73 39.9
-2 4 10 766.82 35.6
-2 4 10 793.62 40.3
-2 4 10 774.02 36.3
-1 -4 10 198.18 14.5
1 -4 -10 199.58 20
-1 -4 10 184.68 15.2
-1 -4 10 174.08 12.8
-1 4 10 153.58 17.7
-1 4 10 204.68 19.4
-1 4 10 199.88 14.5
-1 4 10 216.58 14.2
0 -4 10 380.26 20.5
0 -4 -10 286.97 23.5
0 -4 10 378.16 19
0 4 10 351.96 23.3
0 4 10 292.27 21.5
0 4 10 280.57 19.4
0 4 10 309.07 20
1 -4 10 313.67 18.1
-1 -4 -10 231.38 17.1
1 4 10 240.88 18.3
1 4 10 256.07 18.3
1 4 10 209.28 21.4
2 -4 10 255.27 17.2
2 -4 10 243.88 19.7
-2 -4 -10 242.18 23.7
-2 -4 -10 228.18 19.3
2 4 10 217.88 21
-2 4 -10 248.28 17.4
2 4 10 232.48 23.5
2 4 10 240.78 22.5
2 4 10 250.37 18.2
-2 4 -10 259.67 23
3 -4 10 180.38 23.6
-3 -4 -10 145.79 17.2
3 -4 10 115.89 15.8
3 4 10 140.79 19.6
3 4 10 155.48 21.2
3 4 10 166.08 20.3
-3 4 -10 139.89 18.1
4 -4 10 59.59 20
-4 -4 -10 90.89 19.4
-4 4 -10 100.39 19.6
4 4 10 84.19 22.2
4 4 10 112.89 26.3
-4 -5 10 22.1 20
-4 -5 10 -19.5 15.2
-4 -5 10 1.5 8.9
-4 5 10 -18.2 12.4
-4 5 10 18.3 17.9
-3 -5 10 27.2 13.7
-3 -5 10 -0.6 11
3 -5 -10 9.9 14.2
-3 5 10 1.8 13.6
-3 5 10 7.9 9.6
2 -5 -10 99.29 16.1
-2 -5 10 81.09 11.5
-2 5 10 84.49 10.8
-2 5 10 88.39 10.8
-2 5 10 90.99 14.4
-1 -5 10 14.5 6.7
-1 -5 10 10.9 6.6
1 -5 -10 -4 10.5
-1 -5 10 17.1 5.7
-1 5 10 11.6 6.7
-1 5 10 23.2 9.8
-1 5 10 9.1 7
-1 5 10 18.4 9.9
0 -5 -10 19.2 10.7
0 -5 10 22.6 7.5
0 -5 10 8.1 6
0 5 10 0.7 8.8
0 5 10 -3.5 8.5
0 5 10 19.9 8.6
0 5 10 23.5 7.6
-1 -5 -10 10 7.4
-1 -5 -10 10.1 13.4
1 -5 10 5.7 7.6
1 5 10 4.9 9.7
1 5 10 -4.7 8.4
2 -5 10 44.4 10.1
-2 -5 -10 29.9 9.9
2 -5 10 39.6 8.9
-2 -5 -10 28.1 13.2
-2 5 -10 52.59 8.7
-2 5 -10 43 12.8
2 5 10 67.79 14.3
3 -5 10 -1.7 12.5
-3 -5 -10 3.3 11.8
3 -5 10 12.2 13
3 5 10 11.2 17.1
-3 5 -10 -4.2 11
4 -5 10 14.6 19.1
-4 -5 -10 18.6 18.7
4 5 10 38.8 21.6
-4 5 -10 29.9 16.6
-4 -6 10 150.88 20.7
-4 6 10 147.89 23.4
-4 6 10 137.39 17.9
-3 -6 10 436.96 33.4
-3 -6 10 416.26 30
-3 6 10 462.15 34.7
-3 6 10 480.35 28.7
2 -6 -10 222.88 23.5
-2 -6 10 230.48 19.2
-2 6 10 230.48 22.7
-2 6 10 225.18 19
-2 6 10 197.48 17.5
-1 -6 10 411.46 23.9
1 -6 -10 448.86 29.6
-1 -6 10 466.95 23.7
-1 -6 10 407.66 22.8
-1 6 10 435.66 24.4
-1 6 10 463.75 29.1
-1 6 10 437.46 24.4
-1 6 10 394.16 26.4
0 -6 10 1301.77 53.79
0 -6 -10 1133.39 57.19
0 6 10 1040.3 56.19
0 6 10 1213.18 58.09
0 6 10 1199.78 54.89
0 6 10 1196.28 54.69
-1 -6 -10 165.38 16.1
1 -6 10 202.78 16.2
1 6 10 161.08 21.6
1 6 10 192.58 19.1
1 6 10 141.89 17.9
-2 -6 -10 109.29 13.9
-2 -6 -10 78.09 15.5
2 -6 10 87.79 10.9
2 -6 10 67.09 12.7
2 6 10 85.39 13.7
2 6 10 85.09 13.3
2 6 10 89.19 15.7
-2 6 -10 102.69 11
-3 -6 -10 199.28 22.7
3 -6 10 199.58 20
-3 -6 -10 247.08 22.1
3 -6 10 221.38 35.2
3 6 10 267.87 31.9
3 6 10 242.38 24.8
-3 6 -10 250.87 22.6
3 6 10 221.08 30.6
4 -6 10 74.89 23.1
-4 6 -10 52.39 18.6
4 6 10 60.59 25.6
-4 -7 10 -7.8 17.6
-4 7 10 -11.2 27.3
-4 7 10 18.4 15.1
-3 -7 10 -35.7 16.7
-3 -7 10 14.3 12.7
-3 7 10 12 16.3
-2 -7 10 14.8 10.3
-2 7 10 17.5 9.4
-2 7 10 17.4 9.6
-2 7 10 22.6 14.1
-1 -7 10 165.28 14.5
1 -7 -10 182.68 22.6
-1 -7 10 179.68 15.6
-1 -7 10 183.88 14.4
-1 7 10 153.08 16.5
-1 7 10 173.08 20.7
-1 7 10 144.49 15.9
-1 7 10 166.98 16.9
0 -7 10 109.09 13.7
0 7 10 125.99 15.9
0 7 10 136.69 18.7
0 7 10 121.09 14
0 7 10 121.99 14.1
1 -7 10 -1.4 8.2
-1 -7 -10 1 7.9
1 7 10 -3.6 10.1
1 7 10 -6.1 10.7
1 7 10 -0.8 10.5
2 -7 10 7.5 10.9
-2 -7 -10 2.2 10.5
-2 -7 -10 -4.1 11
2 -7 10 -2.1 8.2
-2 -7 -10 -7.5 13.6
2 7 10 4.1 13.5
2 7 10 8.4 13.6
2 7 10 -3.6 12.3
-2 7 -10 2.5 8.2
3 -7 10 -6.5 13.3
3 -7 10 2.3 14.5
-3 -7 -10 25.5 11.3
-3 -7 -10 -16.4 13.1
-3 7 -10 -13.4 11.9
3 7 10 -3.5 18.7
3 7 10 -4.6 15.8
4 -7 10 23 21.5
-4 -7 -10 56.29 15.8
-4 -7 -10 42.6 20.7
-4 7 -10 8.6 18.9
4 7 10 41.3 24
-4 -8 10 88.09 18.4
-4 8 10 107.69 26.4
-4 8 10 68.49 17.5
-3 -8 10 337.37 36
-3 8 10 353.56 27.7
-3 8 10 348.57 35.2
-2 -8 10 383.76 26.1
-2 8 10 408.66 31.9
-2 8 10 415.96 26.7
-2 8 10 393.56 28.4
-1 -8 10 70.49 10.2
-1 -8 10 69.99 11.2
-1 -8 10 52.79 9.3
-1 8 10 62.19 11.7
-1 8 10 75.89 11.8
-1 8 10 67.49 14.7
0 -8 10 341.17 21.8
0 8 10 364.46 27.7
0 8 10 325.37 26.1
0 8 10 365.16 24.4
0 8 10 346.77 24.1
-1 -8 -10 380.36 25.1
1 -8 10 397.26 25.2
1 8 10 423.86 27.9
1 8 10 398.26 31.5
1 8 10 401.06 27.2
2 -8 10 155.98 20.2
-2 -8 -10 192.58 19.5
-2 -8 -10 168.88 20
2 -8 10 174.68 17.1
-2 -8 -10 147.09 19.6
-2 8 -10 167.18 16.4
2 8 10 134.49 19.8
2 8 10 162.58 22
2 8 10 171.68 18.4
-3 -8 -10 130.89 17.9
-3 -8 -10 165.38 16.8
3 -8 10 130.29 20.2
3 8 10 185.78 25.2
-3 8 -10 159.68 17
4 -8 10 171.08 25.5
-4 -9 10 -2.2 17.3
-4 9 10 -8.8 16.3
-4 9 10 -5.4 25.7
-3 -9 10 19.4 14
-3 9 10 25 19.7
-3 9 10 11.4 14.6
-2 -9 10 2 10.4
-2 9 10 20 11.6
-2 9 10 -24.5 15.8
-2 9 10 32.5 12.8
-1 -9 10 10.9 8.9
-1 -9 10 12.1 7.5
-1 -9 10 -0.4 8.1
-1 9 10 9.2 13.7
-1 9 10 2.4 9.9
-1 9 10 9.5 11
0 -9 10 -2.1 7.4
0 9 10 0.4 9.9
0 9 10 22.3 13.4
0 9 10 17.2 11.1
1 -9 10 17.5 10.6
-1 -9 -10 19.5 11.4
1 9 10 12.5 13.2
1 9 10 27.8 14.1
1 9 10 5.7 13.1
2 -9 10 17.8 10.6
-2 -9 -10 46.5 18.1
-2 -9 -10 28.8 12
-2 -9 -10 55.19 12.5
2 -9 10 22.4 12
2 9 10 67.09 17.6
-2 9 -10 25.5 9.7
2 9 10 24.2 23.9
3 -9 10 -7 15.3
-3 -9 -10 -1 13.8
-3 -9 -10 -14.4 14.9
-3 9 -10 -6.2 13.1
3 9 10 3 20.6
-4 -10 10 112.59 20.8
-4 10 10 146.49 31.5
-4 10 10 173.68 21.7
-3 -10 10 127.69 18.2
-3 10 10 143.39 19.4
-3 10 10 129.99 24.8
-2 -10 10 250.67 22.4
-2 10 10 245.48 24.1
-2 10 10 183.78 23.7
-1 -10 10 120.59 15
-1 -10 10 142.39 13.9
-1 10 10 158.48 16.8
-1 10 10 133.99 19.7
-1 10 10 125.89 16.8
0 -10 10 701.83 37.1
0 10 10 667.03 39.4
0 10 10 726.53 39.5
0 10 10 696.83 43.4
1 -10 10 288.07 23.4
-1 -10 -10 255.37 25.1
1 10 10 314.17 31.7
1 10 10 267.97 28.5
1 10 10 329.97 33.3
-2 -10 -10 133.99 16.8
-2 -10 -10 159.68 20.8
-2 -10 -10 196.48 23.2
2 -10 10 163.58 19.4
2 -10 10 123.69 19.1
-2 10 -10 149.39 18
2 10 10 161.08 25.5
-3 -10 -10 91.89 17.1
3 -10 10 122.29 20.1
3 10 10 144.39 27.6
-3 10 -10 148.69 17.2
-3 -11 10 24 16.8
-3 11 10 -9.8 23.8
-3 11 10 24 17.9
-2 -11 10 33 12.9
-2 11 10 -17.2 15.4
-2 11 10 -22.4 20.6
-2 11 10 32.7 14.4
-1 -11 10 17.5 10.8
-1 -11 10 21.5 9.2
-1 11 10 18.4 20.4
-1 11 10 0.2 13.4
-1 11 10 15.1 13.2
0 -11 10 9.7 10.5
0 11 10 7.1 15.1
1 -11 10 6.5 11.4
1 11 10 -3.7 16.6
1 11 10 5.4 14.7
1 11 10 -6.8 16
2 -11 10 35.1 14.7
2 -11 10 39 12.9
-2 -11 -10 33.5 15.2
-2 -11 -10 45.7 20
-2 -11 -10 43.7 16.6
-2 11 -10 27.6 10.7
2 11 10 12.2 20.9
3 -11 10 -20.7 15.7
-3 -11 -10 7.7 17.2
-3 -11 -10 19.3 17.5
3 11 10 23.2 26.3
-3 -12 10 184.98 21.4
-3 12 10 191.98 31
-3 12 10 152.78 21.9
-2 -12 10 151.18 17.6
-2 12 10 75.29 24.5
-2 12 10 122.19 19.6
-1 -12 10 219.08 20.1
-1 -12 10 204.68 21.5
-1 -12 10 231.28 22.9
-1 12 10 161.08 20.7
-1 12 10 213.18 27.5
-1 12 10 210.88 24.8
0 -12 10 214.88 22.2
0 12 10 225.48 26.1
0 12 10 163.98 25.2
-1 -12 -10 215.08 21.2
1 -12 10 222.48 24.8
1 12 10 182.48 23.5
1 12 10 220.28 28
2 -12 10 131.49 19.9
-2 -12 -10 125.19 19.4
-2 -12 -10 114.69 20.2
2 12 10 102.79 25.1
-3 -12 -10 93.49 22.7
3 -12 10 84.69 20.5
3 12 10 59.49 27.9
-3 -13 10 12.3 18.6
-3 13 10 20.4 19.7
-3 13 10 -16 25.9
-2 13 10 -16.9 21.9
-2 13 10 16.3 17.5
-1 -13 10 35 13.9
-1 -13 10 43.4 18.1
-1 -13 10 33.9 11.2
-1 13 10 48.2 21.9
-1 13 10 16.9 15.4
0 -13 10 -18.9 12.5
0 13 10 -7.9 19.5
0 13 10 3.3 16.1
1 -13 10 12.2 14.1
1 13 10 3.8 21.4
1 13 10 -0.3 17.1
2 -13 10 8.1 15.7
-2 -13 -10 -11 18.3
-2 -13 -10 4.9 17.4
2 13 10 -4.4 24.3
-2 -14 10 228.28 22.4
-2 14 10 234.68 33.9
-2 14 10 164.78 24.7
-1 -14 10 321.57 29.4
-1 -14 10 289.37 26.4
-1 14 10 268.27 32.7
-1 14 10 286.47 32.8
0 -14 10 122.39 19.5
0 14 10 114.79 21.2
0 14 10 150.88 28.7
1 -14 10 127.49 20.5
1 14 10 112.49 21.1
1 14 10 121.89 29
2 -14 10 110.49 22
-2 -14 -10 92.69 22.4
2 14 10 76.09 30.8
2 14 10 103.89 23.5
-2 -15 10 17.9 18.4
-2 -15 10 12 17.8
-2 15 10 24.6 19.7
-2 15 10 59.39 30.3
-1 -15 10 -0.8 15
-1 -15 10 14.3 15.5
-1 15 10 -19.4 25.4
-1 15 10 -2.7 18.9
0 -15 10 -5.1 14.8
0 15 10 -0.9 25
0 15 10 2.2 17.6
1 -15 10 27.1 18.2
1 15 10 22.7 27.8
1 15 10 -3.7 19.9
0 -16 10 163.38 22.7
0 16 10 94.69 23.8
0 16 10 82.69 30.3
-3 0 11 15.8 12.3
-3 0 11 32 7.6
-2 0 11 10.1 10
-1 0 11 0.9 8.7
0 0 11 -4.4 7.5
0 0 11 -3.9 8.5
1 0 11 11.2 8.1
1 0 11 -5.3 8.4
1 0 11 5.4 6.6
-1 0 -11 -6 8.1
-1 0 -11 9.9 6.2
-2 0 -11 2.6 12.3
2 0 11 -8 10.4
2 0 11 18.6 9.8
2 0 11 9.1 11.5
-2 0 -11 -3.6 8.5
-3 0 -11 11.3 10.8
3 0 11 30.6 27.9
3 0 11 1.2 15
3 0 11 11.8 13.3
-4 0 -11 4.8 16.6
4 0 11 12.1 21.5
4 0 11 23.9 22.4
-4 -1 11 81.99 11.5
-4 1 11 37.9 12.5
3 -1 -11 203.18 23.5
3 -1 -11 268.77 24.9
-3 1 11 187.68 16.4
-3 1 11 210.78 23.3
2 -1 -11 289.87 24.6
-2 -1 11 323.37 22.9
-2 1 11 293.97 24.6
-2 1 11 342.57 18
-1 -1 11 502.45 28.6
-1 1 11 470.85 29.2
0 -1 11 384.26 23.7
0 1 11 344.07 21.6
0 1 11 365.36 24.2
0 1 11 348.77 18.7
1 -1 11 1122.89 45.2
-1 -1 -11 875.11 45.6
1 -1 11 1044.4 46.7
-1 -1 -11 964.2 45.5
1 -1 11 1059.99 49.4
1 1 11 972.2 49.5
-1 1 -11 1086.19 46.9
1 1 11 859.11 45.2
1 1 11 982.3 46.7
-1 1 -11 1104.09 44.8
-2 -1 -11 312.07 20.5
-2 -1 -11 288.87 25.1
2 -1 11 262.27 21.2
2 -1 11 329.87 23.5
2 -1 11 338.77 24.4
2 1 11 301.27 25.4
2 1 11 261.57 24.2
-2 1 -11 240.08 25.3
2 1 11 323.17 25.2
-2 1 -11 319.87 21.5
3 -1 11 181.48 22
3 -1 11 98.89 16.6
-3 -1 -11 107.69 14.8
3 -1 11 107.09 18.2
-3 1 -11 126.79 14.6
3 1 11 107.89 19.2
3 1 11 89.69 18.9
3 1 11 119.99 17.7
4 -1 11 64.19 22.7
-4 -1 -11 72.49 17.9
4 -1 11 125.39 24
4 1 11 47.5 21.3
-4 1 -11 79.29 18.1
4 1 11 31 24.1
-4 -2 11 1.9 9.8
-4 -2 11 17.8 16.1
-4 2 11 29.5 12.5
-4 2 11 19.1 16.7
3 -2 -11 23.5 13.6
-3 2 11 6.5 12.8
-3 2 11 -0.7 8
-2 -2 11 70.79 11.3
2 -2 -11 54.99 14.4
-2 2 11 81.49 8.9
-2 2 11 76.19 9
-2 2 11 50.29 13.3
-1 -2 11 44.1 10.2
-1 2 11 40.1 7.6
-1 2 11 61.49 12.9
-1 2 11 54.19 7.5
0 -2 11 35.6 9.3
0 -2 11 15.2 5.8
0 2 11 30.5 11
0 2 11 12.1 8.3
0 2 11 34.4 6.9
0 2 11 29.8 8.2
1 -2 11 4.5 6.8
1 -2 11 1.8 7.9
-1 -2 -11 -3.9 7.9
-1 -2 -11 -16.6 7.8
1 2 11 -4.2 7.4
1 2 11 -19.7 8
1 2 11 -1.4 10.1
-2 -2 -11 8.7 8.4
-2 -2 -11 4.5 12.4
2 -2 11 9 10.3
2 -2 11 -8 9.6
2 -2 11 -2.5 8.5
2 2 11 -8.1 11.1
2 2 11 -2 11.8
-2 2 -11 23.4 12.5
2 2 11 4.9 10.8
-2 2 -11 -8.6 10
3 -2 11 0.5 14.4
3 -2 11 -14.1 14.1
-3 -2 -11 15 12.1
3 -2 11 36.9 15.6
3 2 11 55.19 17.1
3 2 11 15.9 15.2
-3 2 -11 8.8 11.7
3 2 11 -30.9 15.3
4 -2 11 14.9 21.5
-4 -2 -11 27.4 18.4
4 -2 11 -0.7 19.8
4 2 11 19.4 22.7
-4 2 -11 19.8 17
4 2 11 -18 22.3
-4 -3 11 133.09 19.8
-4 -3 11 131.79 16.2
-4 3 11 122.59 15.6
-4 3 11 128.69 19.7
3 -3 -11 491.75 34.3
-3 -3 11 417.96 30.5
-3 3 11 493.05 32.3
-3 3 11 476.45 26.8
-2 -3 11 345.17 23.5
2 -3 -11 367.46 28.4
-2 3 11 394.16 21.2
-2 3 11 362.66 20.9
-2 3 11 337.37 26.5
1 -3 -11 474.75 32
-1 -3 11 573.54 29.2
-1 3 11 538.65 26.3
-1 3 11 515.25 26.6
-1 3 11 467.85 29.4
-1 3 11 542.95 32.4
0 -3 11 316.47 18.2
0 -3 11 348.27 22
0 3 11 291.17 19.6
0 3 11 292.17 20.4
0 3 11 313.97 22.9
0 3 11 276.87 18.5
-1 -3 -11 279.17 19
1 -3 11 328.87 21.6
-1 -3 -11 257.27 19.6
1 -3 11 333.07 20.4
1 3 11 317.87 24.6
1 3 11 283.57 19.8
1 3 11 305.37 20.4
1 3 11 286.87 19.5
2 -3 11 184.28 19.7
2 -3 11 221.58 17.2
-2 -3 -11 173.68 22.5
2 -3 11 191.98 20.5
-2 -3 -11 151.08 17.3
2 3 11 168.88 19.2
-2 3 -11 171.88 18.6
-2 3 -11 162.28 16.9
2 3 11 188.98 19.3
2 3 11 184.38 20.3
3 -3 11 171.88 19
3 -3 11 160.48 20.3
-3 -3 -11 161.98 17.9
3 3 11 174.78 21.6
-3 3 -11 152.08 17.2
3 3 11 141.79 22.9
3 3 11 145.29 22
4 -3 11 150.58 26.5
-4 -3 -11 133.39 21.7
4 -3 11 165.88 26.3
4 3 11 135.19 29.2
4 3 11 126.89 25.4
-4 3 -11 197.08 22.1
-4 -4 11 -0.7 16.5
-4 4 11 -7.5 13
-4 4 11 20.8 18.9
3 -4 -11 18.2 14.9
-3 -4 11 3.2 12.8
-3 -4 11 59.99 12.7
-3 4 11 0.8 13.7
-3 4 11 -6.6 9.5
-2 -4 11 27.9 9.8
2 -4 -11 6.9 13.6
-2 -4 11 32.7 6.9
-2 4 11 27.9 8.9
-2 4 11 45.1 12.5
-2 4 11 21.2 8.8
-1 -4 11 25.4 7.9
-1 -4 11 26.8 8.5
1 -4 -11 9.5 11.5
-1 -4 11 23.6 6.6
-1 4 11 28.6 10.9
-1 4 11 30 7.9
-1 4 11 30.2 10.7
-1 4 11 43.9 8.2
0 -4 11 66.29 10.5
0 -4 11 76.09 9
0 4 11 64.89 13.1
0 4 11 69.39 10.3
0 4 11 60.29 9.5
0 4 11 36 10.5
-1 -4 -11 201.28 17.1
1 4 11 198.88 22
1 4 11 188.78 17.8
1 4 11 216.98 22.4
-2 -4 -11 12.3 13.5
2 -4 11 6.8 8.5
2 -4 11 25.3 11.4
-2 -4 -11 21.6 10.2
2 4 11 19.2 11.5
2 4 11 -2.7 12.4
-2 4 -11 22 13.2
-2 4 -11 23 9.3
2 4 11 21 13.2
3 -4 11 0.5 13.2
-3 -4 -11 17.3 13.2
3 4 11 32.1 17.8
3 4 11 25.7 18
3 4 11 10.1 16.6
-3 4 -11 2.5 11.8
-4 -4 -11 -7.2 20
4 -4 11 14.2 21
4 4 11 17.9 24
4 4 11 19.7 24.4
-4 4 -11 16 19.1
-4 -5 11 203.58 22.7
-4 5 11 218.38 24.5
-4 5 11 153.68 24.4
-3 -5 11 335.27 29.6
-3 -5 11 270.17 25.7
-3 5 11 330.77 30.7
-3 5 11 284.47 23.3
2 -5 -11 559.24 39.6
-2 -5 11 484.35 30.2
-2 -5 11 528.95 27.4
-2 5 11 589.84 35.3
-2 5 11 540.05 29.3
-2 5 11 544.45 29.2
-1 -5 11 125.09 14.3
1 -5 -11 109.79 16.2
-1 -5 11 107.19 12.4
-1 -5 11 121.89 11.9
-1 5 11 142.59 16.7
-1 5 11 121.29 14.3
-1 5 11 122.09 14.4
-1 5 11 80.39 13.2
0 -5 11 514.35 25.4
0 -5 11 501.15 26.9
0 5 11 449.06 27.6
0 5 11 417.86 30.3
0 5 11 444.36 26.3
0 5 11 448.66 26.4
1 -5 11 213.58 17.8
-1 -5 -11 205.28 16.8
1 5 11 224.28 20.4
1 5 11 219.58 22.8
1 5 11 212.68 19.9
-2 -5 -11 124.49 17.4
-2 -5 -11 141.89 15
2 -5 11 148.59 19
2 -5 11 135.09 16.3
2 5 11 157.38 19.2
2 5 11 115.49 17
2 5 11 130.19 19.3
-2 5 -11 138.39 15
3 -5 11 142.69 17.5
3 -5 11 146.59 20.6
-3 -5 -11 155.98 18.7
3 5 11 153.18 25
3 5 11 138.59 22.7
-3 5 -11 193.78 21.2
-4 -5 -11 87.89 25
4 -5 11 114.99 25.5
4 5 11 83.09 27.5
-4 5 -11 118.69 21.6
-4 -6 11 -28.2 16.3
-4 6 11 -5.7 13.7
-4 6 11 -9.1 23.4
-3 -6 11 -20.1 17.3
-3 -6 11 10.6 16.4
-3 6 11 14.7 16.6
-3 6 11 -2.9 13.5
-2 -6 11 -13.7 10.6
-2 6 11 12.1 9.7
-2 6 11 -20.7 12.9
-2 6 11 -3.9 9.3
-1 -6 11 39.7 8.9
-1 -6 11 19.5 7.3
-1 -6 11 19.4 8.3
-1 6 11 13.2 8.9
-1 6 11 19.3 11.8
-1 6 11 12.6 9.5
-1 6 11 18.5 12.8
0 -6 11 12.2 8.2
0 -6 11 12.8 7.8
0 6 11 20.3 9.6
0 6 11 -1.8 11.4
0 6 11 11.9 9.7
0 6 11 7.4 11.7
1 -6 11 6.5 8.8
-1 -6 -11 17.8 9
1 6 11 12.9 11.4
1 6 11 0.2 10.7
1 6 11 11 12.3
-2 -6 -11 -10.6 14.8
2 -6 11 12.5 9.3
-2 -6 -11 0 10.7
2 -6 11 -10.6 10.7
2 6 11 -22.4 18.5
2 6 11 21.9 12.9
-2 6 -11 -5 7.9
2 6 11 3.1 13.7
3 -6 11 -12.4 15.6
-3 -6 -11 -13.1 13.3
3 6 11 0.5 19.8
3 6 11 -19.3 14.9
-3 6 -11 -2.2 13.1
-4 -7 11 221.58 25.4
-4 7 11 238.28 31.3
-4 7 11 225.28 28.1
-3 -7 11 162.78 23.2
-3 -7 11 157.88 23.4
-3 7 11 192.38 24.6
-3 7 11 184.98 23
-2 -7 11 169.38 16.8
-2 7 11 159.68 20.6
-2 7 11 132.69 15.2
-2 7 11 172.78 19.3
-1 -7 11 1021 42.5
-1 -7 11 806.82 41.9
-1 -7 11 864.11 42.5
-1 7 11 876.71 43.3
-1 7 11 867.71 47.6
-1 7 11 846.32 43.4
0 -7 11 168.68 15.9
0 -7 11 139.29 16.6
0 7 11 137.79 16.3
0 7 11 133.79 17.8
0 7 11 148.29 15.5
0 7 11 149.79 17.9
1 -7 11 321.77 21.8
-1 -7 -11 289.67 21.2
1 7 11 312.97 35.7
1 7 11 263.37 29
1 7 11 227.08 24.8
-2 -7 -11 239.68 21.9
-2 -7 -11 151.08 20.6
2 -7 11 191.28 17.6
2 -7 11 178.98 21.9
2 7 11 215.88 24.8
-2 7 -11 150.58 16.6
2 7 11 202.68 26.7
2 7 11 175.48 20.5
3 -7 11 122.69 20.5
-3 -7 -11 146.69 18.8
-3 -7 -11 120.79 15.4
-3 7 -11 138.79 15.9
3 7 11 90.19 24.5
3 7 11 92.99 21.2
-4 -8 11 14.1 18.1
-4 8 11 -41 24.8
-4 8 11 8.8 16.7
-3 -8 11 -1.8 14.7
-3 8 11 17.4 20.9
-3 8 11 16.7 14.9
-2 -8 11 39.6 10.9
-2 8 11 25.5 14.2
-2 8 11 8.3 16.2
-2 8 11 44.3 14.3
-1 -8 11 10.8 9.3
-1 -8 11 -9.4 7.9
-1 -8 11 -7 8.6
-1 8 11 -4.8 13.7
-1 8 11 4.2 10.1
-1 8 11 -19.7 11
0 -8 11 44 9.3
0 8 11 57.29 13
0 8 11 39.2 15.3
0 8 11 37.5 12.1
1 -8 11 14.3 10
1 8 11 2.1 13.8
1 8 11 7.7 14.1
1 8 11 -1.1 13.9
-2 -8 -11 5.4 12.9
-2 -8 -11 -5.8 16.8
2 -8 11 -2.5 11.9
2 -8 11 3.1 10.5
2 8 11 46.8 15.8
2 8 11 -22.8 17.4
2 8 11 8.4 16.7
-3 -8 -11 38.7 16
-3 -8 -11 23.4 14
3 -8 11 23.5 17.5
3 8 11 33.3 21.7
-3 8 -11 -32.5 16
-3 -9 11 203.28 21.8
-3 9 11 195.68 25.1
-3 9 11 182.58 21.3
-3 9 11 245.38 29.8
-2 -9 11 89.59 14.1
-2 9 11 103.99 26.7
-2 9 11 91.89 15.7
-2 9 11 90.29 16
-1 -9 11 290.67 21.1
-1 -9 11 360.46 22.9
-1 -9 11 282.77 22
-1 9 11 267.47 25.6
-1 9 11 333.37 24.7
-1 9 11 325.87 31.4
0 -9 11 437.06 27.5
0 9 11 446.36 36.5
0 9 11 470.05 31.1
0 9 11 472.45 30.7
1 -9 11 216.68 21
1 9 11 151.78 22.4
1 9 11 173.58 26.6
1 9 11 231.68 27.9
-2 -9 -11 121.39 21.3
-2 -9 -11 111.99 17.1
2 -9 11 147.29 18.9
2 -9 11 156.08 19.1
2 9 11 141.29 27.9
2 9 11 102.79 22.9
-3 -9 -11 197.68 19.7
-3 -9 -11 192.28 24.1
3 -9 11 213.18 25.8
3 9 11 181.98 29
-3 -10 11 28.4 15.1
-3 10 11 23.2 16.5
-3 10 11 -17.8 23.2
-2 -10 11 14 11.2
-2 -10 11 18 12.4
-2 10 11 10.6 14.2
-2 10 11 6.2 15
-2 10 11 -14.6 19.3
-1 -10 11 2.5 9.6
-1 -10 11 6.3 9.9
-1 -10 11 -6.5 10.2
-1 10 11 -36.2 15.6
-1 10 11 1.5 12.5
-1 10 11 -12.3 13.9
0 -10 11 1.5 10.5
0 10 11 -7.3 14
0 10 11 18.5 17.8
0 10 11 -11.8 13.8
1 -10 11 -3.7 11.2
1 10 11 -1.2 13.3
1 10 11 18.6 18.2
1 10 11 16.7 17.6
2 -10 11 -2.9 14.4
-2 -10 -11 -0.2 20.2
-2 -10 -11 16.2 12.9
2 10 11 1.8 20.8
-3 -10 -11 27.1 22.3
3 -10 11 11.4 18
-3 -10 -11 -4.9 19.6
3 10 11 4.7 25.8
-3 -11 11 62.99 18.5
-3 11 11 27.4 18.5
-3 11 11 28.8 26.6
-2 -11 11 125.69 16.4
-2 -11 11 122.29 17.2
-2 11 11 90.79 25.4
-2 11 11 108.29 19.9
-2 11 11 108.59 18
-1 -11 11 379.06 25.5
-1 -11 11 353.96 27.8
-1 -11 11 389.76 25.7
-1 11 11 369.36 32.7
-1 11 11 343.07 29.6
-1 11 11 398.46 37.8
0 -11 11 302.57 24.7
0 11 11 279.57 31.4
0 11 11 336.67 29.4
0 11 11 316.57 35.5
1 -11 11 146.19 19.2
1 11 11 195.68 22.9
1 11 11 162.98 25.1
-2 -11 -11 290.67 32.9
-2 -11 -11 331.77 30.7
2 -11 11 320.07 31.8
2 11 11 345.37 42.8
-3 -12 11 -0.3 18.7
-3 12 11 -20.5 17.9
-3 12 11 -16.1 27.3
-2 -12 11 27 14.4
-2 12 11 10.2 24.8
-2 12 11 -7.4 16.2
-1 -12 11 67.89 13
-1 12 11 32.4 16.6
-1 12 11 33.9 21.7
0 -12 11 11.9 13
0 12 11 2 15.1
0 12 11 -5.6 19.2
1 -12 11 0.8 14.8
1 12 11 -24.8 21.7
1 12 11 -12.2 16.6
-2 -12 -11 -4.2 19.3
-2 -12 -11 -1.1 23.7
2 -12 11 -17.7 16.3
2 12 11 -3.1 25.8
-2 -13 11 107.09 19.9
-2 -13 11 111.79 18.8
-2 13 11 113.49 28
-2 13 11 94.79 20
-1 -13 11 315.67 28.3
-1 13 11 230.78 31.6
-1 13 11 257.77 30.8
0 -13 11 55.29 15.2
0 13 11 56.49 23.7
0 13 11 47.6 19.4
1 -13 11 103.89 18.3
1 13 11 145.89 30.2
1 13 11 135.19 22.1
2 -13 11 78.89 19.7
-2 -13 -11 45.5 23.1
2 13 11 79.69 28.8
-2 -14 11 63.69 20.8
-2 14 11 55.99 20
-1 -14 11 0.4 14.9
-1 -14 11 -14.1 13.5
-1 14 11 53.39 19.3
-1 14 11 -33 25.4
0 -14 11 18 15.1
0 14 11 -26.2 24.1
0 14 11 -25.8 18.6
1 -14 11 -6.9 16.9
1 14 11 -6.7 17.7
1 14 11 -56.09 24.8
-1 -15 11 28 17.9
0 -15 11 258.37 31.2
0 15 11 260.27 36.6
0 15 11 331.47 35.7
-4 0 12 523.65 31.3
-3 0 12 226.48 25
-2 0 12 280.67 24.9
-1 0 12 252.17 22.5
0 0 12 142.99 18.9
0 0 12 117.59 12.4
1 0 12 478.45 25.3
1 0 12 498.55 27.4
-1 0 -12 483.25 27.5
-1 0 -12 488.85 25.1
1 0 12 475.65 31
2 0 12 299.57 24.7
-2 0 -12 265.37 22.1
-2 0 -12 244.88 27.3
2 0 12 245.98 22.5
3 0 12 152.38 23
3 0 12 92.09 20.7
-3 0 -12 142.69 16.5
-4 1 12 -10.4 12.3
-3 -1 12 42.9 12.8
3 -1 -12 14.9 15.3
-3 1 12 4.8 14.2
-3 1 12 16 8.9
-2 -1 12 86.59 15.2
-2 1 12 86.59 14.2
-1 -1 12 30.1 11.1
-1 1 12 28.3 11.2
0 -1 12 13.2 9.6
0 1 12 14.2 11.6
0 1 12 26.6 8.4
0 1 12 9.4 10.6
1 -1 12 20.9 7.5
-1 -1 -12 13.8 8.2
-1 -1 -12 9.6 9.2
1 -1 12 23.9 9.6
1 -1 12 34 11.6
1 1 12 27.8 8
-1 1 -12 15 12.1
1 1 12 9.5 9.5
1 1 12 10.5 11
-2 -1 -12 10.4 15.1
2 -1 12 11.9 12.1
-2 -1 -12 1.5 10.6
2 -1 12 1.8 10.9
2 1 12 -10.1 13.8
2 1 12 -4.3 12.9
-2 1 -12 -2.2 14.1
-2 1 -12 30.6 19.3
-3 -1 -12 7.9 13.6
3 -1 12 10.5 17.9
3 -1 12 28.2 17.5
3 1 12 -25 19.8
3 1 12 -1.7 17.2
-3 1 -12 25.3 14
3 1 12 1.8 17.7
-4 -2 12 86.29 19.9
-4 2 12 69.09 19.4
-4 2 12 90.09 15.3
3 -2 -12 233.18 29.3
-3 2 12 240.18 18.9
-3 2 12 229.28 26.6
2 -2 -12 254.67 27.4
-2 -2 12 280.47 24
-2 2 12 317.47 25.4
-2 2 12 251.57 18
-2 2 12 303.47 18.2
-1 -2 12 682.83 34.3
-1 2 12 518.35 33.3
-1 2 12 590.64 35.5
-1 2 12 579.44 29
0 -2 12 317.87 22.7
0 -2 12 293.47 18.1
0 2 12 312.67 25.6
0 2 12 277.07 18.3
0 2 12 305.67 21.3
0 2 12 287.97 19.3
-1 -2 -12 384.06 24.6
1 -2 12 492.15 28.4
1 -2 12 484.45 25.5
1 2 12 412.36 29.4
1 2 12 404.26 25.1
1 2 12 371.86 24
-2 -2 -12 245.88 25.5
-2 -2 -12 166.28 19.1
2 -2 12 165.48 18.3
2 -2 12 152.88 18.8
2 -2 12 161.78 29
2 2 12 137.89 22.8
2 2 12 191.98 20.4
-2 2 -12 174.48 20.1
-2 2 -12 181.58 19.2
2 2 12 211.88 22.4
3 -2 12 103.19 36.9
3 -2 12 116.99 21.9
-3 -2 -12 140.29 17.8
3 2 12 122.89 25.8
3 2 12 88.39 20
3 2 12 106.49 21.6
-3 2 -12 150.78 17.2
-4 -3 12 18.5 18.3
-4 3 12 3.5 19.6
-4 3 12 -9.3 13.1
3 -3 -12 39 21.2
-3 3 12 9.7 15.3
-3 3 12 22.7 10.2
2 -3 -12 2.9 14.3
-2 -3 12 4.6 9.9
-2 3 12 13.9 8.3
-2 3 12 3.7 8.5
-2 3 12 -11.3 12.5
-1 -3 12 15.4 10.1
-1 3 12 27.9 11.8
-1 3 12 14.2 8.2
-1 3 12 17.9 12.6
-1 3 12 27.2 8.3
0 -3 12 67.79 11.8
0 -3 12 69.39 9.2
0 3 12 48.7 9.2
0 3 12 62.29 14.6
0 3 12 42.6 11.3
0 3 12 75.09 9.9
-1 -3 -12 9 9.8
1 -3 12 4.4 8.9
1 -3 12 -2.7 10.5
1 3 12 7.5 11.4
1 3 12 6.5 9.3
1 3 12 8.7 10.4
2 -3 12 8.7 11.4
2 -3 12 21.3 10
-2 -3 -12 12.5 10.6
-2 -3 -12 3.5 15.3
2 -3 12 10.3 13.4
-2 3 -12 18.2 10.3
2 3 12 25.3 13.9
2 3 12 11.3 15.4
-2 3 -12 10.6 17.6
2 3 12 -13 13.2
-3 -3 -12 10.6 15.7
3 -3 12 -6.9 16.8
3 -3 12 15.6 18.1
3 3 12 52.79 31.4
3 3 12 -9.8 17.8
3 3 12 10.2 18.7
-3 3 -12 -16.4 12.9
-4 -4 12 181.68 23.5
-4 4 12 178.58 23.1
-4 4 12 170.08 25.7
-3 -4 12 183.88 28.2
-3 4 12 234.78 29
-3 4 12 196.88 20.8
-2 -4 12 326.57 24.6
-2 -4 12 299.27 22.9
-2 4 12 294.27 21.3
-2 4 12 349.27 21.9
-2 4 12 329.97 28.4
-1 -4 12 377.56 22.3
-1 -4 12 327.67 19.9
-1 -4 12 365.86 24.4
-1 4 12 364.16 28.4
-1 4 12 247.08 27.1
-1 4 12 356.36 22.1
-1 4 12 348.87 21.6
0 -4 12 463.95 24.1
0 -4 12 504.45 27.6
0 4 12 400.66 27.4
0 4 12 414.56 30.9
0 4 12 430.36 25.3
0 4 12 397.56 25.9
1 -4 12 151.88 19.4
1 -4 12 142.19 17.4
-1 -4 -12 136.99 17.1
1 4 12 125.99 14.4
1 4 12 125.49 18.8
1 4 12 148.49 16.7
-2 -4 -12 216.68 21.8
2 -4 12 225.28 25.5
2 -4 12 243.18 19.1
-2 -4 -12 240.58 27
2 -4 12 226.18 23.6
2 4 12 203.48 24.4
2 4 12 230.28 26.2
2 4 12 249.88 22.9
-2 4 -12 251.17 19.5
-3 -4 -12 134.49 19.1
3 -4 12 119.09 21
3 -4 12 121.89 21
3 4 12 136.39 24.4
3 4 12 118.99 22.3
-3 4 -12 126.49 16.4
-4 -5 12 -19.4 18.5
-4 5 12 49.99 24.2
-4 5 12 5.1 14.9
-3 -5 12 10.5 16.1
-3 -5 12 37.6 14.7
-3 5 12 7.6 12.4
-3 5 12 8.7 12.3
-3 5 12 19.5 18.5
-2 -5 12 49 9
-2 -5 12 65.99 12.7
-2 5 12 70.59 11.7
-2 5 12 74.29 12.4
-2 5 12 66.59 15.1
-1 -5 12 80.59 12.4
-1 -5 12 65.29 8.8
-1 -5 12 82.49 11.5
-1 5 12 76.29 10.9
-1 5 12 61.89 15.1
-1 5 12 70.89 11.1
0 -5 12 211.38 17
0 -5 12 199.88 19.5
0 5 12 188.08 18.5
0 5 12 135.69 16.7
0 5 12 171.78 18.7
0 5 12 151.38 19.6
1 -5 12 82.79 13.2
1 -5 12 93.39 12.4
-1 -5 -12 52.89 11.5
1 5 12 67.19 14
1 5 12 65.39 16.8
1 5 12 73.29 12.7
-2 -5 -12 9.9 11
2 -5 12 11.3 10
-2 -5 -12 4.1 16.3
2 -5 12 -12.6 11.9
2 5 12 -7.9 12.8
2 5 12 1.9 16.4
2 5 12 -20.8 14.3
3 -5 12 15 17.6
-3 -5 -12 14.1 15.4
3 5 12 14.6 22.4
-3 5 -12 12.8 13.1
-4 -6 12 69.99 19.9
-4 6 12 87.09 26.9
-4 6 12 66.39 17.1
-3 -6 12 187.28 21.4
-3 -6 12 185.98 24.4
-3 6 12 175.08 27.3
-3 6 12 204.98 23
-2 -6 12 455.55 25.9
-2 -6 12 433.86 29.2
-2 6 12 424.46 27.8
-2 6 12 413.96 33.6
-2 6 12 465.55 28.6
-1 -6 12 50.29 10.4
-1 -6 12 62.99 9.2
-1 -6 12 68.29 11.8
-1 6 12 56.89 12.6
-1 6 12 61.29 12.1
-1 6 12 34.7 16.7
0 -6 12 891.61 41.8
0 -6 12 860.71 40.1
0 6 12 794.42 46
0 6 12 748.83 42.6
0 6 12 771.52 41.3
0 6 12 753.12 41.3
1 -6 12 374.76 26.9
1 -6 12 420.66 24.8
1 6 12 327.27 27.5
1 6 12 322.97 28.3
1 6 12 349.17 46.1
2 -6 12 122.89 17.9
2 -6 12 103.39 13
-2 -6 -12 111.19 19.3
-2 -6 -12 96.09 14.8
2 6 12 86.89 16.3
2 6 12 94.39 18.9
2 6 12 94.89 21.6
-3 -6 -12 123.99 18.4
3 -6 12 125.69 19.9
3 6 12 112.79 25.3
-3 -7 12 -14.6 19.7
-3 -7 12 21.6 15.2
-3 7 12 28.8 21.1
-3 7 12 -10.8 13.7
-2 -7 12 18.5 12.2
-2 -7 12 16 9.5
-2 7 12 10.8 12.6
-2 7 12 31.6 17.9
-1 -7 12 8 8.8
-1 -7 12 -2.7 9.1
-1 -7 12 0 10.2
-1 7 12 7.1 14.3
-1 7 12 8.9 11
-1 7 12 -10.4 11.6
0 -7 12 -8.1 9.4
0 -7 12 22.2 9.2
0 7 12 -1.5 11
0 7 12 8.9 14.4
0 7 12 16.3 11.9
1 -7 12 7.9 10.8
1 7 12 -24.9 15.3
1 7 12 -17 15.3
1 7 12 42.3 17.2
2 -7 12 -1.8 13
2 -7 12 18.6 10.5
-2 -7 -12 -15.9 13.6
-2 -7 -12 49 18.3
2 7 12 -18.9 16.9
2 7 12 24.8 17.6
2 7 12 12.3 20.5
-3 -7 -12 -5.9 16.6
3 -7 12 -1.5 17.1
3 7 12 -10.9 23.8
-3 -8 12 171.38 20.5
-3 8 12 185.78 20.5
-3 8 12 178.18 29.2
-2 -8 12 198.78 18.6
-2 -8 12 175.48 18.9
-2 8 12 192.78 19.3
-2 8 12 178.78 26
-2 8 12 285.47 36.3
-1 -8 12 427.26 27.3
-1 -8 12 418.36 26
-1 -8 12 510.75 27.3
-1 8 12 284.07 45.6
-1 8 12 471.75 30.9
-1 8 12 454.85 35.2
0 -8 12 174.98 18.4
0 -8 12 188.38 20.3
0 8 12 173.08 20.5
0 8 12 126.19 21.7
1 -8 12 126.09 15.6
1 8 12 74.29 20.1
1 8 12 124.79 18.6
1 8 12 103.09 17.9
2 -8 12 81.59 16.6
-2 -8 -12 102.49 16.2
-2 -8 -12 80.89 28.6
2 8 12 65.49 20.9
2 8 12 97.59 23.4
3 -8 12 218.28 26.1
-3 -8 -12 205.98 25.3
3 8 12 273.07 34.3
-3 -9 12 -31.3 15.3
-3 9 12 23.3 17.4
-3 9 12 -8.8 24.9
-2 -9 12 -3.8 10.8
-2 -9 12 3 12.6
-2 9 12 0.2 14
-2 9 12 -20.8 20.7
-2 9 12 16.7 15.7
-1 -9 12 26.6 10.8
-1 -9 12 45.3 11.8
-1 -9 12 31.5 12.2
-1 9 12 -3.4 16.7
-1 9 12 43.1 15.5
-1 9 12 45.1 14.4
0 -9 12 12.2 10.9
0 9 12 -5.2 16.7
0 9 12 -12.1 14.6
0 9 12 16.9 14.2
1 -9 12 -16.9 11.6
1 9 12 22.7 18.2
1 9 12 3.5 18.4
1 9 12 22.3 14.9
2 -9 12 4 15
-2 -9 -12 -12.1 13.9
2 9 12 -21.8 20.5
-3 -10 12 191.28 22.6
-3 10 12 170.08 23.1
-3 10 12 162.08 29.4
-2 -10 12 98.09 15.6
-2 -10 12 146.89 18.1
-2 10 12 136.89 18.8
-2 10 12 121.39 27.6
-1 -10 12 225.58 23.3
-1 -10 12 238.68 22.3
-1 -10 12 234.78 21.8
-1 10 12 225.88 28.2
-1 10 12 225.08 26.1
-1 10 12 227.48 29.4
0 -10 12 208.78 22.6
0 10 12 137.99 23.7
0 10 12 180.28 21.9
0 10 12 178.18 21.4
1 -10 12 221.98 28.3
1 10 12 195.78 23.2
1 10 12 155.08 24.6
1 10 12 219.78 27.7
-2 -10 -12 113.29 18.9
2 -10 12 111.39 21.5
2 10 12 103.99 28
-2 -11 12 40.9 20.6
-2 -11 12 -0.3 25.9
-2 11 12 44.1 17.3
-2 11 12 17.2 25.5
-1 -11 12 -3.7 10.7
-1 -11 12 4.9 13.1
-1 -11 12 -17.7 11.2
-1 11 12 -15 18.1
-1 11 12 -12.2 14.5
-1 11 12 18.1 19.1
0 11 12 -9.5 21.7
0 11 12 9.2 18.7
0 11 12 5.1 15.6
1 -11 12 -22.8 13.9
1 11 12 -16.7 16.3
1 11 12 -17.9 23.3
2 -11 12 -3.4 17.1
-2 -11 -12 6.8 19.5
2 11 12 -6.4 25.6
-2 -12 12 158.28 21.3
-2 -12 12 194.28 21.2
-2 12 12 161.68 32
-2 12 12 151.68 21.9
-1 -12 12 209.08 22
-1 -12 12 225.68 24.1
-1 -12 12 221.18 23.5
-1 12 12 205.78 29.1
-1 12 12 211.48 23.4
0 -12 12 85.29 16.3
0 12 12 69.19 24.4
0 12 12 68.39 18.9
1 -12 12 130.29 21.2
1 12 12 167.78 29.1
1 12 12 163.68 22.6
-1 -13 12 -4.1 13.2
-1 -13 12 3.6 15.7
-1 -13 12 3.4 13.9
-1 13 12 43.6 17.5
-1 13 12 3.8 24.2
0 -13 12 -16 14.9
0 13 12 -22.2 24.9
0 13 12 7.5 17.9
1 -13 12 -34.4 16.4
1 13 12 -22.5 25.8
1 13 12 47.2 19.6
0 -14 12 213.18 24.2
-4 0 13 5.8 12.8
-3 0 13 38 15.4
-2 0 13 -14.6 11.9
-1 0 13 -0.6 12.2
0 0 13 -8.8 11.4
0 0 13 2.3 11.2
1 0 13 13 12.9
1 0 13 -2.3 10.5
1 0 13 -11.1 8.4
2 0 13 -8.6 12.4
-2 0 -13 -15.2 16.9
2 0 13 -8.8 15.6
-2 0 -13 10.9 12.3
2 0 13 15.3 13.8
3 0 13 -29.1 34.9
3 0 13 13.7 20
-3 0 -13 39.3 16.1
-4 1 13 185.88 23.1
-3 -1 13 294.77 28.9
-3 1 13 295.57 29
-2 -1 13 145.69 18
-2 1 13 146.89 18.7
-1 -1 13 162.98 21.9
-1 1 13 125.99 17.5
0 -1 13 341.37 26.4
0 1 13 312.27 26.8
0 1 13 275.67 22.9
1 -1 13 332.67 27.2
1 -1 13 315.97 22.7
-1 -1 -13 302.77 20.9
1 1 13 254.87 21
1 1 13 268.37 22.1
1 1 13 358.96 30
2 -1 13 271.57 26
2 -1 13 236.68 23
2 -1 13 259.67 29.3
-2 -1 -13 219.58 29.3
-2 -1 -13 222.38 21.7
-2 1 -13 209.98 22.7
2 1 13 201.08 26.6
-2 1 -13 259.17 24.9
2 1 13 269.47 30.4
2 1 13 242.38 24.2
3 -1 13 135.19 24.5
3 -1 13 100.69 22
-3 -1 -13 100.99 18
3 1 13 101.69 23.6
3 1 13 126.49 29
-3 1 -13 142.09 19.8
-4 -2 13 46.7 19.2
-4 2 13 18.8 14
-4 2 13 -15.7 21.3
-3 2 13 -3.9 16.9
-3 2 13 2.3 10.3
-2 -2 13 -3.2 11.8
-2 2 13 6.6 13.8
-1 -2 13 20.2 11.5
-1 2 13 4.6 13.8
-1 2 13 3.6 12.6
0 -2 13 -5.4 10.7
0 2 13 3.9 7.9
0 2 13 5.1 14
0 2 13 -0.3 11.4
0 2 13 9.6 8.9
-1 -2 -13 41.3 11.3
1 -2 13 30.4 13.5
1 -2 13 33 10.6
1 2 13 45.3 10.6
2 -2 13 25.2 14.4
2 -2 13 23 14
2 -2 13 21.7 11.6
-2 -2 -13 -1.9 17.2
-2 -2 -13 41.7 12.7
2 2 13 16.3 16.5
2 2 13 46.3 14.9
-2 2 -13 40.7 12
2 2 13 34.2 16
3 -2 13 36.3 21.7
3 -2 13 30 19.8
-3 -2 -13 11.3 16
3 2 13 50.59 21.4
3 2 13 -2 21.3
-4 -3 13 43 18.5
-4 3 13 63.29 16.3
-3 -3 13 215.68 27.1
-3 3 13 223.98 24.7
-3 3 13 222.68 25.8
-2 -3 13 413.86 30
-2 3 13 409.96 24.8
-2 3 13 453.85 25.2
-2 3 13 384.06 33.8
-1 -3 13 242.48 22.7
-1 3 13 215.68 17.5
-1 3 13 210.48 26.9
-1 3 13 257.17 26
-1 3 13 233.88 18.2
0 -3 13 507.75 26.6
0 -3 13 601.14 31.8
0 3 13 470.35 28.2
0 3 13 506.05 35.4
0 3 13 446.46 27.5
0 3 13 447.36 30.5
1 -3 13 294.77 26.1
1 -3 13 322.17 22.5
1 3 13 230.88 22.1
1 3 13 210.58 29.7
2 -3 13 92.19 13.7
-2 -3 -13 118.09 19.4
2 -3 13 81.89 17.5
2 -3 13 106.09 17.4
-2 -3 -13 84.59 15
-2 3 -13 101.39 13.1
2 3 13 84.09 18.1
2 3 13 127.19 21.4
2 3 13 85.09 17.5
3 -3 13 42.6 20.6
3 -3 13 42.8 20.7
-3 -3 -13 61.29 18.9
3 3 13 47.7 23.4
3 3 13 35.5 22.2
-3 -4 13 25.9 15.7
-3 4 13 -17 12.4
-3 4 13 -10.8 18.5
-2 -4 13 6.7 13.1
-2 -4 13 -4 11.2
-2 4 13 -5.1 10.7
-2 4 13 9.5 10.1
-2 4 13 11.1 16.3
-1 -4 13 23.4 10.9
-1 -4 13 11.3 10.7
-1 4 13 3.5 9.9
-1 4 13 17.8 9.9
-1 4 13 21.8 14.7
0 -4 13 -3.3 9.7
0 -4 13 -9.8 8.2
0 4 13 2.6 9.7
0 4 13 29.9 11
0 4 13 -28.7 12.9
0 4 13 20.2 13.9
1 -4 13 148.39 18.4
1 -4 13 118.79 17.3
1 4 13 82.39 20.5
1 4 13 114.19 15.9
1 4 13 87.19 21.6
2 -4 13 29.1 10.9
-2 -4 -13 16.1 13.2
2 -4 13 23.1 15.5
-2 -4 -13 18 17.9
2 -4 13 2.2 13.4
2 4 13 1.1 16.5
2 4 13 32.9 19.4
3 -4 13 -0.3 20.6
3 -4 13 -8.9 17
-3 -4 -13 9.2 17.6
3 4 13 7.5 22.7
-3 -5 13 143.09 19.6
-3 5 13 170.48 17.8
-3 5 13 186.08 33.9
-2 -5 13 351.16 29.2
-2 -5 13 340.57 26.6
-2 5 13 355.76 32.3
-2 5 13 372.36 25
-2 5 13 379.16 26.4
-1 -5 13 342.97 22.2
-1 -5 13 410.36 24.2
-1 -5 13 358.36 25
-1 5 13 295.67 24
-1 5 13 322.77 24
-1 5 13 307.77 31.4
0 -5 13 337.07 22
0 -5 13 351.26 26.1
0 5 13 263.37 24
0 5 13 269.17 28.3
0 5 13 270.67 23.8
1 -5 13 203.68 31.1
1 -5 13 174.98 19.4
1 5 13 184.38 24.7
1 5 13 145.69 18.4
1 5 13 175.58 18.4
-2 -5 -13 194.18 25.4
2 -5 13 253.27 27.2
2 -5 13 223.28 28.6
-2 -5 -13 232.28 23.6
2 5 13 175.88 26.4
2 5 13 194.18 24.9
3 -5 13 44.1 20.2
3 -5 13 22.7 20.7
-3 -5 -13 16.6 17
3 5 13 9.9 25.4
-3 -6 13 0.7 17.9
-3 6 13 -16.1 23.8
-3 6 13 -2.8 14.6
-2 -6 13 -1.5 9.6
-2 -6 13 -23.7 13.3
-2 6 13 -34.3 19.7
-2 6 13 -22.9 20.9
-2 6 13 -1.1 14.6
-1 -6 13 5.5 9.5
-1 -6 13 -3.1 10.6
-1 -6 13 39.4 11.4
-1 6 13 -19.9 11.3
-1 6 13 -9 13
0 -6 13 14.5 9.8
0 -6 13 13.2 11.6
0 6 13 13.2 12.7
0 6 13 9.2 17.4
0 6 13 20.5 12.5
1 -6 13 48.8 12.5
1 6 13 41.8 17.3
1 6 13 40.8 19.4
1 6 13 50.09 16.2
2 -6 13 10.5 17.7
-2 -6 -13 12 15.1
2 -6 13 21 16.7
2 6 13 13.9 20.5
2 6 13 47 27.2
3 -6 13 34.5 21.1
-3 -6 -13 14.5 18.7
3 6 13 -26.7 23.4
-3 -7 13 131.59 20.1
-3 7 13 112.59 17.8
-3 7 13 107.19 28.4
-2 -7 13 298.47 26.6
-2 -7 13 252.07 22.2
-2 7 13 304.87 26
-2 7 13 312.17 35.5
-1 -7 13 218.98 20.7
-1 -7 13 187.98 20
-1 -7 13 144.39 14.7
-1 7 13 147.09 18.5
-1 7 13 160.48 23.7
-1 7 13 120.59 25.2
0 -7 13 440.46 27.1
0 7 13 463.35 31.3
0 7 13 389.66 36
0 7 13 383.66 38.4
1 -7 13 64.89 15.5
1 -7 13 90.89 15.2
1 7 13 92.29 18.1
1 7 13 92.89 22.7
1 7 13 80.29 17.3
2 -7 13 159.48 21.3
-2 -7 -13 176.28 20.3
2 7 13 151.68 28.2
-3 -8 13 7.1 18.4
-3 8 13 13.1 17.4
-3 8 13 -26 24.7
-2 -8 13 -2 10.4
-2 -8 13 1.7 13.6
-2 8 13 -11.9 14.8
-2 8 13 15.8 20.8
-1 -8 13 32.5 11.6
-1 -8 13 30.4 11.9
-1 -8 13 13 10.3
-1 8 13 27 13.2
-1 8 13 32.4 19.9
-1 8 13 7.1 15.4
0 -8 13 -3.6 11.6
0 -8 13 3.8 11.8
0 8 13 -13.3 13.8
0 8 13 3.8 19.6
0 8 13 8.8 18.1
1 -8 13 -8.1 13.7
1 8 13 -7.2 18.5
1 8 13 22.6 22.1
1 8 13 -2.9 15.8
2 -8 13 -22.2 17.2
-2 -8 -13 6 15.2
2 8 13 30.2 24.1
-2 -9 13 123.09 16
-2 -9 13 127.09 17.7
-2 9 13 114.99 25.4
-2 9 13 124.49 19.4
-1 -9 13 422.66 28.5
-1 -9 13 338.27 27.2
-1 -9 13 485.35 27.5
-1 9 13 344.27 39.5
-1 9 13 359.76 31
0 -9 13 2.4 12.3
0 -9 13 31.7 14
0 9 13 40.2 20.4
0 9 13 26.5 15.6
0 9 13 -12.8 18.3
1 -9 13 198.98 31.2
1 9 13 209.78 23.2
1 9 13 212.18 29.9
2 -9 13 199.58 24.5
-2 -9 -13 245.78 29.4
2 9 13 142.09 29.6
-2 -10 13 -8.9 13.4
-2 10 13 -16 24.4
-2 10 13 8.9 17
-1 -10 13 6.8 12.3
-1 -10 13 11.7 13.1
-1 -10 13 -4.5 12.5
-1 10 13 12 22.7
-1 10 13 -12.9 14.9
0 -10 13 34.2 17
0 -10 13 -0.3 14.1
0 10 13 -13 21.4
0 10 13 29.4 16.1
1 -10 13 -6.4 14.5
1 10 13 5.4 17.9
1 10 13 37.1 24.7
-2 -10 -13 29.2 19.5
2 -10 13 20.5 19
2 10 13 -6.6 25.5
-2 -11 13 20.8 15.8
-2 -11 13 66.09 17.3
-2 11 13 13.7 25.9
-2 11 13 72.89 19.3
-1 -11 13 233.08 24.6
-1 -11 13 217.78 21.3
-1 -11 13 231.68 27.4
-1 11 13 252.17 31.1
-1 11 13 234.48 30.7
0 -11 13 154.78 23.8
0 -11 13 107.99 19.6
0 11 13 69.09 26.5
0 11 13 113.29 20.6
1 -11 13 100.79 21.1
1 11 13 86.49 27
1 11 13 91.49 20.8
-1 -12 13 -1.8 16.2
-1 -12 13 -3.2 15.3
-1 -12 13 18.3 13.9
-1 12 13 18.3 17.5
-1 12 13 -33.1 24.3
0 -12 13 -24 17.3
0 12 13 -8.7 16.4
0 12 13 10.4 23.3
-3 0 14 446.36 36.1
-2 0 14 56.59 16.8
-1 0 14 617.24 40.1
0 0 14 53.19 16.8
0 0 14 86.89 14.2
1 0 14 209.38 20
1 0 14 245.88 30.5
2 0 14 76.19 17.2
2 0 14 99.89 21.2
-3 1 14 25.5 17.7
-2 -1 14 -3.5 14.4
-2 1 14 0.9 15.1
-1 -1 14 84.09 16.8
-1 1 14 58.69 17.8
-1 1 14 46.1 21.7
0 -1 14 32.6 13.9
0 1 14 7.6 13.2
0 1 14 30.1 20.2
1 -1 14 18.3 12
1 -1 14 10.3 15.9
1 1 14 33.4 10.8
1 1 14 18.8 15.6
-2 -1 -14 28.7 12.9
2 -1 14 1.3 16.6
2 -1 14 -0.8 16.3
2 1 14 31.5 19.3
2 1 14 -38.7 15.5
-3 2 14 112.29 21.9
-2 -2 14 166.38 19.1
-2 2 14 147.79 20.6
-1 -2 14 341.97 29.3
-1 2 14 275.67 31.7
0 -2 14 480.15 32.1
0 2 14 378.86 48
0 2 14 318.97 22.9
0 2 14 421.16 29.7
1 -2 14 309.67 25.1
1 -2 14 310.67 30.6
1 2 14 279.07 33.6
1 2 14 221.78 22.9
-2 -2 -14 55.99 15
2 -2 14 46.7 18.6
2 -2 14 71.59 18.1
2 2 14 62.89 20.3
2 2 14 71.39 17.4
-3 -3 14 12.7 16.9
-3 3 14 10.4 12.5
-3 3 14 24.3 21.8
-2 -3 14 -3.8 14.6
-2 3 14 14.2 18
-2 3 14 -1.4 11.2
-2 3 14 4.8 10.4
-1 -3 14 -17 12.4
-1 3 14 13.9 17.5
-1 3 14 12.4 9.7
-1 3 14 8.6 9.8
0 -3 14 43.6 15.1
0 3 14 20.3 17.2
0 3 14 35.8 12
0 3 14 18.6 14.8
0 3 14 34 10.5
1 -3 14 33.5 16.8
1 -3 14 40.3 11.9
1 3 14 18 17.3
1 3 14 34.2 13
2 -3 14 42.4 19.2
-2 -3 -14 41.8 15.5
2 -3 14 44.5 17.4
2 3 14 66.89 23.6
2 3 14 60.09 17.8
-3 -4 14 255.27 30.8
-3 4 14 260.07 32.6
-3 4 14 248.08 25.5
-2 -4 14 182.18 19.3
-2 -4 14 204.68 20.9
-2 4 14 158.98 17.1
-1 -4 14 236.98 25.7
-1 -4 14 184.98 21
-1 4 14 181.98 25
-1 4 14 159.98 20.3
-1 4 14 217.08 20.5
0 -4 14 324.57 22.2
0 -4 14 378.86 28.4
0 4 14 292.67 24.5
0 4 14 239.68 29.8
0 4 14 276.57 29.8
0 4 14 301.37 25.4
1 -4 14 222.98 22.1
1 -4 14 238.68 27.8
1 4 14 235.38 27.6
1 4 14 151.28 24.5
-2 -4 -14 86.59 18
2 -4 14 91.89 20.7
2 -4 14 79.49 19.6
2 4 14 111.59 23.3
-3 -5 14 -18.4 18.5
-3 5 14 -1.9 14.7
-3 5 14 16 24.3
-2 -5 14 7.2 13.5
-2 -5 14 8.6 13.4
-2 5 14 9.1 13.2
-2 5 14 32.9 18.8
-1 -5 14 0.5 9.7
-1 -5 14 -13 11.8
-1 -5 14 -8.8 13.7
-1 5 14 16.9 12.6
-1 5 14 22.5 12.4
-1 5 14 4.6 17.1
0 -5 14 -2.8 13.2
0 -5 14 2.5 10.8
0 5 14 12.5 14.9
0 5 14 4.3 17.9
0 5 14 0.2 12.9
1 -5 14 -9.4 15.9
1 -5 14 22.4 12.7
1 5 14 7.9 15.4
1 5 14 31.8 17.4
1 5 14 12.7 19.5
-2 -5 -14 0.7 15
2 -5 14 6.4 17.2
2 5 14 -39.7 22.3
-3 -6 14 166.18 22.4
-3 -6 14 125.99 16
-3 6 14 192.68 30.5
-3 6 14 130.19 20
-2 -6 14 218.18 21.7
-2 -6 14 248.68 26.6
-2 -6 14 202.58 21.3
-2 6 14 189.78 24.9
-2 6 14 192.88 27
-1 -6 14 274.17 26.6
-1 -6 14 284.57 23
-1 -6 14 359.66 25
-1 6 14 249.58 29.3
-1 6 14 237.98 25.9
0 -6 14 85.39 17
0 -6 14 105.69 13.4
0 6 14 113.59 22.4
0 6 14 80.79 21.5
0 6 14 91.29 17
1 -6 14 315.57 26
1 -6 14 320.77 30.2
1 6 14 253.37 32.9
1 6 14 216.68 28.7
2 -6 14 221.78 26.8
-2 -6 -14 246.58 30.8
2 -6 14 197.78 24.3
2 6 14 237.78 32.2
-2 -7 14 10.1 16.1
-2 -7 14 -5.3 11
-2 7 14 6 14.9
-2 7 14 -11.6 23.5
-1 -7 14 47.4 12.6
-1 -7 14 45.9 12.4
-1 -7 14 33.1 14.1
-1 7 14 39.1 14.4
-1 7 14 30.6 20.8
0 -7 14 -14.2 11.4
0 -7 14 7.8 14.6
0 7 14 18.1 20.4
0 7 14 9.3 15.3
1 -7 14 -11.5 14.3
1 -7 14 20.6 16.6
1 7 14 13.4 17.3
1 7 14 -0.7 20.3
-2 -7 -14 35.6 18.8
2 -7 14 -8.7 20.1
2 -7 14 19.6 19.1
2 7 14 11.4 24.6
-2 -8 14 159.38 17.2
-2 8 14 168.38 20.5
-2 8 14 169.28 27.7
-1 -8 14 178.08 21.6
-1 -8 14 156.78 18.9
-1 -8 14 150.88 17.1
-1 8 14 180.08 27.6
-1 8 14 124.99 20.5
0 -8 14 244.28 25.8
0 8 14 299.07 40.4
0 8 14 267.37 29.4
1 -8 14 101.69 19.8
1 8 14 70.69 24.7
1 8 14 73.09 19.7
-2 -9 14 33.9 16.3
-2 -9 14 13.3 13.7
-2 9 14 6.1 25.7
-2 9 14 14.1 17.2
-1 -9 14 -4.4 13.3
-1 -9 14 -20.3 12
-1 -9 14 18.1 12.4
-1 9 14 -22.3 22.7
-1 9 14 18.9 15.8
0 -9 14 -16.8 15.4
0 -9 14 1.8 15.3
0 9 14 -1.2 22.3
0 9 14 40.9 17.1
1 -9 14 4.7 17
1 -9 14 -4.9 16.5
1 9 14 -12.3 24.1
1 9 14 -14.6 18.3
-1 -10 14 254.87 28.3
-1 10 14 219.48 30.6
-1 10 14 243.78 31.7
0 -10 14 -18.5 16.8
0 -10 14 40.2 18.1
0 10 14 -5 23.4
0 10 14 7.8 18.9
1 -10 14 272.77 34.2
1 -10 14 298.87 35.7
1 10 14 270.27 35.8
1 10 14 333.27 33.3
-2 0 15 7.4 18.7
0 0 15 -8 14.8
0 0 15 5.8 16.6
1 0 15 -6 18.6
2 0 15 -12.6 19.1
2 0 15 -1.7 19.6
-2 -1 15 202.98 24.9
-2 1 15 185.68 28.9
-1 -1 15 292.97 34.5
-1 1 15 233.08 28.3
0 -1 15 244.58 26.8
0 1 15 197.68 25.5
0 1 15 154.38 20
1 -1 15 43.1 16.9
1 -1 15 89.09 19.9
1 1 15 27.5 18.4
1 1 15 27.5 15
2 -1 15 127.49 22
2 -1 15 100.89 21.1
2 1 15 114.09 20.6
2 1 15 99.29 24.5
-2 -2 15 12.2 17.6
-2 2 15 -7.6 19.9
-1 -2 15 2.9 18
-1 2 15 1.7 18.8
0 -2 15 3.9 17.1
0 2 15 -15 18.9
0 2 15 15.6 17.1
1 -2 15 53.59 18.3
1 -2 15 41.6 14.8
1 2 15 34.5 21
1 2 15 62.19 21.6
2 -2 15 75.49 20.4
2 -2 15 31 19.3
2 2 15 23.4 20
2 2 15 29.2 21.5
-2 -3 15 216.68 25.1
-2 3 15 218.18 29
-1 -3 15 223.78 22.5
-1 -3 15 200.48 24.4
-1 3 15 209.48 28
0 -3 15 487.85 34.6
0 3 15 395.76 27.7
0 3 15 338.57 39
0 3 15 308.67 35.2
1 -3 15 129.99 20.4
1 -3 15 121.19 17.2
1 3 15 94.09 17.5
1 3 15 68.39 23
2 -3 15 189.18 26.7
2 -3 15 257.07 32.6
2 3 15 205.18 29.3
-2 -4 15 26.1 16.8
-2 4 15 7.9 22.5
-2 4 15 1.8 13.1
-1 -4 15 -11.3 12.8
-1 -4 15 3.1 16
-1 4 15 -13.8 19.1
-1 4 15 16 13.8
0 -4 15 22.4 17.4
0 -4 15 23 12.9
0 4 15 5.2 18.3
0 4 15 11.8 21.6
1 -4 15 -24.1 15.2
1 -4 15 -9 13.8
1 4 15 22.6 22.8
1 4 15 -4.4 16.8
2 -4 15 16 18.9
2 -4 15 14.9 21.8
2 4 15 8.7 27.1
-2 -5 15 197.58 22.6
-2 5 15 200.98 25.5
-2 5 15 165.98 26.9
-1 -5 15 121.69 15.7
-1 -5 15 105.19 18.9
-1 5 15 82.69 23.4
-1 5 15 141.99 17.9
0 -5 15 249.97 23.1
0 -5 15 286.97 31.3
0 5 15 208.48 26.7
0 5 15 241.98 30.3
1 -5 15 278.57 32
1 -5 15 254.47 26.7
1 5 15 187.58 23.8
1 5 15 254.47 32.7
-2 -6 15 -0.9 17.7
-2 -6 15 -17.5 16.9
-2 6 15 -6.1 22.9
-2 6 15 12 16.3
-1 -6 15 0.6 12.9
-1 -6 15 -1 16.6
-1 -6 15 3.9 12.4
-1 6 15 -25 20.4
-1 6 15 25.3 15.8
0 -6 15 1.1 16.7
0 -6 15 26.8 12.8
0 6 15 15.5 15.4
0 6 15 -30.5 22.1
1 -6 15 10.5 18
1 -6 15 -32.4 14.7
1 6 15 -12.8 16.9
1 6 15 -14.6 22.6
-2 -7 15 213.38 24.3
-1 -7 15 142.29 16.8
-1 -7 15 155.08 17.7
-1 -7 15 233.48 29.1
-1 7 15 160.28 20.4
-1 7 15 134.59 27.1
0 -7 15 90.49 19.7
0 -7 15 97.19 15.8
0 7 15 61.19 23.7
0 7 15 95.29 18
1 -7 15 276.37 35
1 7 15 255.87 33.8
1 7 15 252.37 32.9
-1 -8 15 -15.6 14
-1 -8 15 31.6 17.2
-1 -8 15 -3.4 14.9
-1 8 15 -11.3 17
-1 8 15 -19.6 23.7
0 -8 15 21.5 17.9
0 -8 15 18.8 14.7
0 8 15 8 21.7
0 8 15 18.5 19
-2 0 16 247.48 29.7
-1 0 16 154.18 28.9
0 0 16 407.26 41.3
1 0 16 45.6 22.7
-2 -1 16 -23.3 21.4
-2 1 16 29.9 21.9
-1 -1 16 13.9 21.5
-1 1 16 20.4 23.1
0 -1 16 79.59 21.2
0 1 16 5.7 21.1
1 -1 16 4.8 21.6
1 1 16 -6 22.5
-1 -2 16 285.57 31
-1 2 16 262.17 32.1
0 -2 16 120.39 24.1
0 2 16 103.49 24.9
1 -2 16 171.48 25.2
1 2 16 173.78 28.6
1 2 16 163.28 21.5
-1 -3 16 -22.6 20.3
-1 -3 16 -9.1 14.4
-1 3 16 -21.5 22
0 -3 16 7.3 20.3
0 3 16 29 23.5
1 -3 16 -10.7 17.3
1 -3 16 -4 22.1
1 3 16 3.4 24.1
1 3 16 -11.6 17.9
-1 -4 16 177.78 18.7
-1 -4 16 188.68 26.3
-1 4 16 118.59 25.7
-1 4 16 156.08 17.7
0 -4 16 195.18 25.4
0 4 16 141.89 19.3
0 4 16 78.09 26.9
-1 -5 16 1.3 19.7
-1 -5 16 -3.1 15.4
-1 5 16 5.4 23.2
-1 5 16 -16.7 15.2
0 -5 16 51.59 14.5
0 -5 16 42.4 21.2
0 5 16 17.3 17.3
0 5 16 0.7 22.6
