#------------------------------------------------------------------------------
#$Date: 2022-09-28 01:50:55 +0300 (Wed, 28 Sep 2022) $
#$Revision: 278229 $
#$URL: file:///home/coder/svn-repositories/cod/cif/7/71/13/7711357.cif $
#------------------------------------------------------------------------------
#
# This file is available in the Crystallography Open Database (COD),
# http://www.crystallography.net/
#
# All data on this site have been placed in the public domain by the
# contributors.
#
data_7711357
loop_
_publ_author_name
'Yan, Yong'
'Zhang, Ningning'
'Fuhrmann, Daniel'
'Merker, Stefan Jens'
'Krautscheid, Harald'
_publ_section_title
;
 A stable lanthanum hydroxamate metal-organic framework with radical
 character and electrical conductivity
;
_journal_name_full               'Dalton Transactions'
_journal_paper_doi               10.1039/D2DT02340G
_journal_year                    2022
_chemical_formula_moiety
'C14 H8 La N2 O8, 2(H2 O), 1[Cl], 0.75[C4 H9 N O]'
_chemical_formula_sum            'C17 H18.75 Cl La N2.75 O10.75'
_chemical_formula_weight         607.96
_space_group_crystal_system      monoclinic
_space_group_IT_number           15
_space_group_name_Hall           '-C 2yc'
_space_group_name_H-M_alt        'C 1 2/c 1'
_atom_sites_solution_hydrogens   mixed
_atom_sites_solution_primary     direct
_atom_sites_solution_secondary   difmap
_audit_creation_method
;
Olex2 1.5
(compiled 2022.04.07 svn.rca3783a0 for OlexSys, GUI svn.r6498)
SHELXL-2014/7
;
_audit_update_record
;
2022-09-15 deposited with the CCDC.	2022-09-27 downloaded from the CCDC.
;
_cell_angle_alpha                90
_cell_angle_beta                 99.908(6)
_cell_angle_gamma                90
_cell_formula_units_Z            4
_cell_length_a                   19.2116(14)
_cell_length_b                   14.8074(11)
_cell_length_c                   8.5126(7)
_cell_measurement_reflns_used    14102
_cell_measurement_temperature    180(2)
_cell_measurement_theta_max      70.01
_cell_measurement_theta_min      3.75
_cell_volume                     2385.5(3)
_computing_cell_refinement       'STOE X-AREA'
_computing_data_collection       'STOE X-AREA'
_computing_data_reduction        'STOE X-AREA'
_computing_molecular_graphics    'Olex2 1.5 (Dolomanov et al., 2009)'
_computing_publication_material  'Olex2 1.5 (Dolomanov et al., 2009)'
_computing_structure_refinement  'SHELXL-2014/7 (Sheldrick, 2014)'
_computing_structure_solution    'SHELXT  (Sheldrick, 2015)'
_diffrn_ambient_temperature      180(2)
_diffrn_detector_type            'DECTRIS PILATUS 300K'
_diffrn_measured_fraction_theta_full 0.997
_diffrn_measured_fraction_theta_max 0.985
_diffrn_measurement_device_type  'STOE STADIVARI'
_diffrn_measurement_method       'rotation method, \w scans'
_diffrn_radiation_type           CuK\a
_diffrn_radiation_wavelength     1.54186
_diffrn_reflns_av_R_equivalents  0.0269
_diffrn_reflns_av_unetI/netI     0.0218
_diffrn_reflns_Laue_measured_fraction_full 0.997
_diffrn_reflns_Laue_measured_fraction_max 0.985
_diffrn_reflns_limit_h_max       23
_diffrn_reflns_limit_h_min       -13
_diffrn_reflns_limit_k_max       18
_diffrn_reflns_limit_k_min       -14
_diffrn_reflns_limit_l_max       9
_diffrn_reflns_limit_l_min       -10
_diffrn_reflns_number            9350
_diffrn_reflns_point_group_measured_fraction_full 0.997
_diffrn_reflns_point_group_measured_fraction_max 0.985
_diffrn_reflns_theta_full        67.686
_diffrn_reflns_theta_max         70.631
_diffrn_reflns_theta_min         3.790
_diffrn_source                   'GeniX 3D HF Cu'
_exptl_absorpt_coefficient_mu    15.397
_exptl_absorpt_correction_T_max  1.0000
_exptl_absorpt_correction_T_min  0.4624
_exptl_absorpt_correction_type   multi-scan
_exptl_absorpt_process_details
;
STOE LANA, absorption correction by scaling of reflection intensities.
J. Koziskova, F. Hahn, J. Richter, J. Kozisek, "Comparison of different
absorption corrections on the model structure of tetrakis(\m~2~-acetato)-
diaqua-di-copper(II)", Acta Chimica Slovaca, vol. 9, no. 2, 2016, pp. 136 - 140.
;
_exptl_crystal_colour            brown
_exptl_crystal_density_diffrn    1.693
_exptl_crystal_density_method    'not measured'
_exptl_crystal_description       block
_exptl_crystal_F_000             1200
_exptl_crystal_size_max          0.080
_exptl_crystal_size_mid          0.060
_exptl_crystal_size_min          0.024
_refine_diff_density_max         0.915
_refine_diff_density_min         -0.846
_refine_diff_density_rms         0.112
_refine_ls_extinction_method     none
_refine_ls_goodness_of_fit_ref   1.078
_refine_ls_hydrogen_treatment    constr
_refine_ls_matrix_type           full
_refine_ls_number_parameters     124
_refine_ls_number_reflns         2257
_refine_ls_number_restraints     0
_refine_ls_restrained_S_all      1.078
_refine_ls_R_factor_all          0.0356
_refine_ls_R_factor_gt           0.0335
_refine_ls_shift/su_max          0.001
_refine_ls_shift/su_mean         0.000
_refine_ls_structure_factor_coef Fsqd
_refine_ls_weighting_details
'w=1/[\s^2^(Fo^2^)+(0.0705P)^2^+1.9807P] where P=(Fo^2^+2Fc^2^)/3'
_refine_ls_weighting_scheme      calc
_refine_ls_wR_factor_gt          0.0916
_refine_ls_wR_factor_ref         0.0927
_reflns_Friedel_coverage         0.000
_reflns_number_gt                2106
_reflns_number_total             2257
_reflns_threshold_expression     'I > 2\s(I)'
_cod_data_source_file            d2dt02340g2.cif
_cod_data_source_block           La-ONDI
_cod_original_sg_symbol_H-M      'C 2/c'
_cod_database_code               7711357
_shelx_shelxl_version_number     2014/7
_shelx_space_group_comment
;
The symmetry employed for this shelxl refinement is uniquely defined
by the following loop, which should always be used as a source of
symmetry information in preference to the above space-group names.
They are only intended as comments.
;
_shelx_estimated_absorpt_t_min   0.372
_shelx_estimated_absorpt_t_max   0.709
_platon_squeeze_special_details
;
A solvent mask was calculated and 246 electrons were 
found in a volume of 910\%A^3^ in 1 void per unit cell. 
This is consistent with the presence of 1[Cl] per Formula Unit 
which account for 68 electrons per unit cell.
0.75[C4H9NO] per Formula Unit account for 144 electrons per unit cell.
;
_olex2_refinement_description
;
1. Fixed Uiso
 At 1.2 times of:
  All C(H) groups
 At 1.5 times of:
  All O(H,H) groups
2.a Riding coordinates:
 O2W(H2WA,H2WB)
2.b Rotating group:
 O1W(H1WA,H1WB)
2.c Aromatic/amide H refined with riding coordinates:
 C5(H5), C4(H4)
;
_shelx_res_file
;

    la-neu.res created by SHELXL-2014/7


TITL La-ONDI in C2/c: [La(ONDI)(H2O)2]Cl*2H2O*0.75DMA
CELL 1.54186 19.2116 14.8074 8.5126 90 99.908 90
ZERR 4 0.0014 0.0011 0.0007 0 0.006 0
LATT 7
SYMM -X,+Y,0.5-Z
SFAC C H La N O Cl
UNIT 68 75 4 11 43 4

L.S. 20 0 35
PLAN  5
SIZE 0.024 0.06 0.08
TEMP -93.15
CONF
MORE -1
BOND $H
ABIN
fmap 2 53
acta
OMIT 0 2 0
OMIT -1 1 1

WGHT    0.070500    1.980700
FVAR       0.34771
LA1   3    0.500000    0.465046    0.250000    10.50000    0.02650    0.03356 =
         0.01926    0.00000    0.00393    0.00000
C1    1    0.649890    0.621435    0.648306    11.00000    0.03551    0.05071 =
         0.02471   -0.00269    0.00709   -0.00912
C2    1    0.620883    0.631767    0.355488    11.00000    0.03786    0.04695 =
         0.02307   -0.00039    0.00661   -0.00730
C3    1    0.679013    0.695086    0.354222    11.00000    0.03814    0.05512 =
         0.02385   -0.00149    0.00420   -0.01650
C4    1    0.692533    0.730728    0.211411    11.00000    0.04755    0.07430 =
         0.02368   -0.00268    0.00245   -0.02836
AFIX  43
H4    2    0.663813    0.713749    0.113625    11.00000   -1.20000
AFIX   0
C5    1    0.748181    0.791407    0.211131    11.00000    0.05214    0.07569 =
         0.02154   -0.00199    0.00576   -0.02804
AFIX  43
H5    2    0.756957    0.815695    0.113105    11.00000   -1.20000
AFIX   0
C6    1    0.790714    0.816445    0.352996    11.00000    0.03573    0.05398 =
         0.02852   -0.00308    0.00577   -0.01538
C7    1    0.778173    0.780516    0.499191    11.00000    0.03715    0.05374 =
         0.02444   -0.00391    0.00613   -0.01242
N1    4    0.612821    0.596757    0.501222    11.00000    0.03234    0.04645 =
         0.02485   -0.00114    0.00546   -0.01231
O1    5    0.632096    0.591411    0.770081    11.00000    0.04256    0.06187 =
         0.02158    0.00064    0.00628   -0.01609
O2    5    0.559064    0.536781    0.501419    11.00000    0.02872    0.04362 =
         0.02692   -0.00287    0.00640   -0.01249
O3    5    0.579971    0.606352    0.234994    11.00000    0.04225    0.05326 =
         0.02144   -0.00237    0.00217   -0.01504
O1W   5    0.477474    0.318228    0.080950    11.00000    0.07167    0.05556 =
         0.04364   -0.00495    0.00406   -0.00931
AFIX   7
H1WA  2    0.441455    0.324509   -0.021092    11.00000   -1.50000
H1WB  2    0.454200    0.267320    0.133248    11.00000   -1.50000
AFIX   0
O2W   5    0.395264    0.169282    0.149208    11.00000    0.13439    0.10971 =
         0.21649   -0.01417    0.04137   -0.02307
AFIX   3
H2WA  2    0.390074    0.148952    0.242398    11.00000   -1.50000
H2WB  2    0.368904    0.134172    0.081718    11.00000   -1.50000
AFIX   0
HKLF 4

REM  La-ONDI in C2/c: [La(ONDI)(H2O)2]Cl*2H2O*0.75DMA
REM R1 =  0.0335 for    2106 Fo > 4sig(Fo)  and  0.0356 for all    2257 data
REM    124 parameters refined using      0 restraints

END

WGHT      0.0705      1.9808

REM Highest difference peak  0.915,  deepest hole -0.846,  1-sigma level  0.112
Q1    1   0.4588  0.4173  0.2412  11.00000  0.05    0.92
Q2    1   0.4634  0.5083  0.2421  11.00000  0.05    0.91
Q3    1   0.3865  0.1006  0.2982  11.00000  0.05    0.76
Q4    1   0.3837  0.1352  0.2769  11.00000  0.05    0.66
Q5    1   0.4587  0.2527  0.2569  11.00000  0.05    0.53
;
_shelx_res_checksum              2578
_shelx_fab_file
;
    2    0    0     39.40      0.00
    4    0    0     19.33      0.00
    6    0    0     23.91      0.00
    8    0    0    -10.84      0.00
   10    0    0      1.63      0.00
   12    0    0      1.63      0.00
   14    0    0     -1.35      0.00
   16    0    0      3.96      0.00
   18    0    0      1.48      0.00
   20    0    0      1.06      0.00
   22    0    0      0.73      0.00
    1    1    0   -128.80      0.00
    3    1    0     28.87      0.00
    5    1    0    -29.42      0.00
    7    1    0      0.19      0.00
    9    1    0      6.81      0.00
   11    1    0     -4.13      0.00
   13    1    0      1.67      0.00
   15    1    0     -1.40      0.00
   17    1    0     -1.57      0.00
   19    1    0     -1.35      0.00
   21    1    0      0.76      0.00
   23    1    0     -2.11      0.00
    2    2    0    -42.37      0.00
    4    2    0    -18.73      0.00
    6    2    0     11.87      0.00
    8    2    0     -7.70      0.00
   10    2    0      1.00      0.00
   12    2    0      0.53      0.00
   14    2    0     -2.35      0.00
   16    2    0      1.54      0.00
   18    2    0     -1.45      0.00
   20    2    0      0.01      0.00
   22    2    0      0.14      0.00
    1    3    0      3.20      0.00
    3    3    0     57.72      0.00
    5    3    0     -4.21      0.00
    7    3    0     -2.36      0.00
    9    3    0      3.27      0.00
   11    3    0     -2.53      0.00
   13    3    0      2.59      0.00
   15    3    0      0.85      0.00
   17    3    0      1.34      0.00
   19    3    0      0.58      0.00
   21    3    0      0.43      0.00
    0    4    0     20.18      0.00
    2    4    0    -25.48      0.00
    4    4    0     -6.48      0.00
    6    4    0      9.49      0.00
    8    4    0     -0.49      0.00
   10    4    0      1.66      0.00
   12    4    0      0.12      0.00
   14    4    0     -1.71      0.00
   16    4    0      0.73      0.00
   18    4    0     -1.51      0.00
   20    4    0      1.42      0.00
   22    4    0     -0.61      0.00
    1    5    0    -14.42      0.00
    3    5    0     -2.00      0.00
    5    5    0     -8.82      0.00
    7    5    0     -4.10      0.00
    9    5    0      0.42      0.00
   11    5    0     -1.08      0.00
   13    5    0     -0.07      0.00
   15    5    0     -1.93      0.00
   17    5    0     -0.21      0.00
   19    5    0     -0.50      0.00
   21    5    0     -1.30      0.00
    0    6    0      8.88      0.00
    2    6    0      6.59      0.00
    4    6    0      6.21      0.00
    6    6    0      2.34      0.00
    8    6    0     -1.38      0.00
   10    6    0     -0.64      0.00
   12    6    0     -0.93      0.00
   14    6    0      1.95      0.00
   16    6    0      2.01      0.00
   18    6    0     -1.70      0.00
   20    6    0      0.96      0.00
    1    7    0      5.10      0.00
    3    7    0     -1.85      0.00
    5    7    0      0.08      0.00
    7    7    0      2.62      0.00
    9    7    0      1.05      0.00
   11    7    0      3.06      0.00
   13    7    0      0.76      0.00
   15    7    0     -1.23      0.00
   17    7    0      1.82      0.00
   19    7    0      2.18      0.00
   21    7    0     -0.08      0.00
    0    8    0     -9.09      0.00
    2    8    0     -2.98      0.00
    4    8    0      3.07      0.00
    6    8    0     -1.25      0.00
    8    8    0     -0.72      0.00
   10    8    0     -0.49      0.00
   12    8    0     -2.99      0.00
   14    8    0     -0.88      0.00
   16    8    0     -0.98      0.00
   18    8    0     -3.13      0.00
   20    8    0     -1.21      0.00
    1    9    0      2.63      0.00
    3    9    0     -5.49      0.00
    7    9    0      0.61      0.00
    9    9    0     -2.17      0.00
   11    9    0      0.81      0.00
   13    9    0      1.30      0.00
   15    9    0      0.71      0.00
   17    9    0      1.29      0.00
   19    9    0      1.30      0.00
    0   10    0     -0.53      0.00
    2   10    0      2.63      0.00
    4   10    0      7.47      0.00
    6   10    0      0.38      0.00
    8   10    0     -0.03      0.00
   10   10    0      1.32      0.00
   12   10    0     -0.04      0.00
   14   10    0     -0.88      0.00
   16   10    0      0.25      0.00
   18   10    0     -0.41      0.00
    1   11    0      0.84      0.00
    3   11    0     -4.45      0.00
    5   11    0     -0.94      0.00
    7   11    0      2.09      0.00
    9   11    0      0.48      0.00
   11   11    0     -0.43      0.00
   13   11    0      0.69      0.00
   15   11    0      0.44      0.00
   17   11    0     -0.24      0.00
    0   12    0     -2.67      0.00
    2   12    0      0.17      0.00
    4   12    0      1.17      0.00
    6   12    0     -1.57      0.00
    8   12    0     -1.55      0.00
   10   12    0     -0.26      0.00
   12   12    0     -0.10      0.00
   14   12    0     -1.28      0.00
   16   12    0      0.42      0.00
    1   13    0      2.60      0.00
    3   13    0     -0.74      0.00
    5   13    0      0.70      0.00
    7   13    0     -0.04      0.00
    9   13    0      0.66      0.00
   11   13    0     -0.20      0.00
   13   13    0      0.11      0.00
   15   13    0     -0.37      0.00
    0   14    0     -3.06      0.00
    2   14    0     -0.75      0.00
    4   14    0     -0.64      0.00
    6   14    0      0.66      0.00
    8   14    0     -0.56      0.00
   10   14    0      0.20      0.00
   12   14    0      1.07      0.00
   14   14    0      0.79      0.00
    1   15    0      0.94      0.00
    3   15    0      0.96      0.00
    5   15    0      0.41      0.00
    7   15    0      0.75      0.00
    9   15    0     -0.02      0.00
   11   15    0     -0.89      0.00
    0   16    0     -0.12      0.00
    2   16    0      0.10      0.00
    4   16    0     -1.88      0.00
    6   16    0     -0.55      0.00
    8   16    0     -1.02      0.00
   10   16    0      0.67      0.00
    1   17    0     -0.87      0.00
    3   17    0      1.17      0.00
    5   17    0      0.46      0.00
    7   17    0      1.37      0.00
    0   18    0      0.68      0.00
    2   18    0      1.64      0.00
  -23    1    1     -0.04      0.00
  -21    1    1     -1.43      0.00
  -19    1    1     -0.81      0.00
  -17    1    1     -0.61      0.00
  -15    1    1     -0.56      0.00
  -13    1    1     -0.22      0.00
  -11    1    1      0.02      0.00
   -9    1    1     -4.94      0.00
   -7    1    1    -12.17      0.00
   -5    1    1    -19.54      0.00
   -3    1    1    -60.17      0.00
    1    1    1    -16.91      0.00
    3    1    1     -9.02      0.00
    5    1    1      1.93      0.00
    7    1    1     -1.16      0.00
    9    1    1     -2.14      0.00
   11    1    1     -0.85      0.00
   13    1    1     -0.19      0.00
   15    1    1     -0.08      0.00
   17    1    1     -0.01      0.00
   19    1    1      0.77      0.00
   21    1    1      0.61      0.00
  -22    2    1      0.15      0.00
  -20    2    1      0.99      0.00
  -18    2    1      0.78      0.00
  -16    2    1      1.10      0.00
  -14    2    1      0.60      0.00
  -12    2    1     -0.69      0.00
  -10    2    1      0.49      0.00
   -8    2    1      9.10      0.00
   -6    2    1      4.39      0.00
   -4    2    1     35.43      0.00
   -2    2    1     69.63      0.00
    0    2    1     10.24      0.00
    2    2    1     18.77      0.00
    4    2    1      0.12      0.00
    6    2    1     -1.69      0.00
    8    2    1      2.29      0.00
   10    2    1      1.34      0.00
   12    2    1      1.19      0.00
   14    2    1      0.17      0.00
   16    2    1      0.60      0.00
   18    2    1     -1.27      0.00
   20    2    1      0.59      0.00
   22    2    1     -2.07      0.00
  -21    3    1      0.02      0.00
  -19    3    1      0.74      0.00
  -17    3    1     -0.58      0.00
  -15    3    1     -0.80      0.00
  -13    3    1      0.18      0.00
  -11    3    1      2.13      0.00
   -9    3    1     -1.81      0.00
   -7    3    1      4.48      0.00
   -5    3    1     18.95      0.00
   -3    3    1    -35.43      0.00
   -1    3    1     -1.08      0.00
    1    3    1      5.83      0.00
    3    3    1    -10.70      0.00
    5    3    1      3.93      0.00
    7    3    1      1.56      0.00
    9    3    1     -0.31      0.00
   11    3    1      0.32      0.00
   13    3    1     -0.67      0.00
   15    3    1     -0.62      0.00
   17    3    1     -0.23      0.00
   19    3    1      0.52      0.00
   21    3    1     -0.63      0.00
  -22    4    1     -1.59      0.00
  -20    4    1     -1.16      0.00
  -18    4    1     -0.80      0.00
  -16    4    1     -0.49      0.00
  -14    4    1      0.16      0.00
  -12    4    1     -0.77      0.00
  -10    4    1     -0.52      0.00
   -8    4    1     -1.54      0.00
   -6    4    1    -24.56      0.00
   -4    4    1    -13.67      0.00
   -2    4    1      7.50      0.00
    0    4    1    -34.43      0.00
    2    4    1     11.70      0.00
    4    4    1      1.57      0.00
    6    4    1     -4.28      0.00
    8    4    1     -1.65      0.00
   10    4    1     -2.74      0.00
   12    4    1     -1.20      0.00
   14    4    1     -0.02      0.00
   16    4    1      1.69      0.00
   18    4    1     -0.37      0.00
   20    4    1      0.88      0.00
   22    4    1     -1.69      0.00
  -21    5    1      0.16      0.00
  -19    5    1      0.87      0.00
  -17    5    1      0.23      0.00
  -15    5    1      1.12      0.00
  -13    5    1     -0.43      0.00
  -11    5    1      0.31      0.00
   -9    5    1     -2.18      0.00
   -7    5    1      5.52      0.00
   -5    5    1     16.63      0.00
   -3    5    1    -10.97      0.00
   -1    5    1     18.94      0.00
    1    5    1      3.72      0.00
    3    5    1    -13.06      0.00
    5    5    1      3.19      0.00
    7    5    1      3.42      0.00
    9    5    1      0.61      0.00
   11    5    1      2.69      0.00
   13    5    1      1.30      0.00
   15    5    1     -0.91      0.00
   17    5    1     -1.88      0.00
   19    5    1      0.28      0.00
   21    5    1      0.75      0.00
  -22    6    1     -0.52      0.00
  -20    6    1      0.20      0.00
  -18    6    1      1.64      0.00
  -16    6    1     -0.36      0.00
  -14    6    1     -0.37      0.00
  -12    6    1     -0.06      0.00
  -10    6    1      0.22      0.00
   -8    6    1      2.10      0.00
   -6    6    1      0.07      0.00
   -4    6    1      8.97      0.00
   -2    6    1      9.18      0.00
    0    6    1    -12.80      0.00
    2    6    1     15.03      0.00
    4    6    1      0.36      0.00
    6    6    1     -4.88      0.00
    8    6    1      1.70      0.00
   10    6    1      0.16      0.00
   12    6    1      0.08      0.00
   14    6    1     -0.51      0.00
   16    6    1      1.81      0.00
   18    6    1      0.87      0.00
   20    6    1     -0.69      0.00
  -21    7    1     -0.05      0.00
  -19    7    1     -1.19      0.00
  -17    7    1     -2.41      0.00
  -15    7    1      0.92      0.00
  -13    7    1     -0.26      0.00
  -11    7    1      2.04      0.00
   -9    7    1      2.33      0.00
   -7    7    1     -2.37      0.00
   -5    7    1     -6.29      0.00
   -3    7    1    -12.96      0.00
   -1    7    1      8.04      0.00
    1    7    1     -1.54      0.00
    3    7    1     -3.70      0.00
    5    7    1      6.15      0.00
    7    7    1      1.15      0.00
    9    7    1     -2.69      0.00
   11    7    1     -1.94      0.00
   13    7    1     -1.11      0.00
   15    7    1     -0.24      0.00
   17    7    1     -1.42      0.00
   19    7    1      0.41      0.00
  -20    8    1     -0.24      0.00
  -18    8    1      2.14      0.00
  -16    8    1     -0.31      0.00
  -14    8    1     -0.27      0.00
  -12    8    1      0.14      0.00
  -10    8    1     -5.12      0.00
   -8    8    1     -4.17      0.00
   -6    8    1      2.14      0.00
   -4    8    1      3.84      0.00
   -2    8    1     -1.20      0.00
    0    8    1    -10.63      0.00
    2    8    1      2.51      0.00
    4    8    1     -4.55      0.00
    6    8    1     -4.28      0.00
    8    8    1      1.43      0.00
   10    8    1     -0.27      0.00
   12    8    1      3.17      0.00
   14    8    1      0.25      0.00
   16    8    1      0.70      0.00
   18    8    1      0.53      0.00
   20    8    1     -1.45      0.00
  -19    9    1     -0.55      0.00
  -17    9    1     -0.32      0.00
  -15    9    1      1.87      0.00
  -13    9    1     -1.96      0.00
  -11    9    1      0.98      0.00
   -9    9    1      6.41      0.00
   -7    9    1      0.36      0.00
   -5    9    1      1.09      0.00
   -3    9    1     -0.95      0.00
   -1    9    1      8.48      0.00
    1    9    1      2.19      0.00
    3    9    1     -0.81      0.00
    5    9    1      2.72      0.00
    7    9    1     -0.22      0.00
    9    9    1      1.48      0.00
   11    9    1     -0.68      0.00
   13    9    1     -2.08      0.00
   15    9    1     -0.43      0.00
   17    9    1     -1.02      0.00
   19    9    1      0.70      0.00
  -18   10    1      0.88      0.00
  -16   10    1     -1.81      0.00
  -14   10    1      0.34      0.00
  -12   10    1      2.52      0.00
  -10   10    1     -2.51      0.00
   -8   10    1     -1.31      0.00
   -6   10    1      1.87      0.00
   -4   10    1     -1.56      0.00
   -2   10    1     -0.16      0.00
    0   10    1     -4.70      0.00
    2   10    1      4.06      0.00
    4   10    1      1.28      0.00
    6   10    1      0.56      0.00
    8   10    1      1.07      0.00
   10   10    1     -1.86      0.00
   12   10    1      2.84      0.00
   14   10    1      0.74      0.00
   16   10    1      0.84      0.00
   18   10    1      0.78      0.00
  -17   11    1      0.38      0.00
  -15   11    1      1.27      0.00
  -13   11    1     -2.30      0.00
  -11   11    1     -0.34      0.00
   -9   11    1      0.80      0.00
   -7   11    1     -3.88      0.00
   -5   11    1      0.98      0.00
   -3   11    1     -0.96      0.00
   -1   11    1      2.27      0.00
    1   11    1     -1.89      0.00
    3   11    1     -2.64      0.00
    5   11    1     -0.84      0.00
    7   11    1     -1.36      0.00
    9   11    1     -0.03      0.00
   11   11    1     -0.86      0.00
   13   11    1     -0.92      0.00
   15   11    1      0.13      0.00
   17   11    1     -0.42      0.00
  -16   12    1     -1.20      0.00
  -14   12    1      0.15      0.00
  -12   12    1      1.07      0.00
  -10   12    1      0.07      0.00
   -8   12    1      2.18      0.00
   -6   12    1      2.16      0.00
   -4   12    1     -2.27      0.00
   -2   12    1      0.54      0.00
    0   12    1     -0.60      0.00
    2   12    1      1.73      0.00
    4   12    1     -0.21      0.00
    6   12    1     -0.10      0.00
    8   12    1      1.53      0.00
   10   12    1     -0.47      0.00
   12   12    1     -0.07      0.00
   14   12    1     -1.72      0.00
   16   12    1     -0.94      0.00
  -15   13    1      1.56      0.00
  -13   13    1     -0.11      0.00
  -11   13    1      0.57      0.00
   -9   13    1     -2.17      0.00
   -7   13    1     -1.54      0.00
   -5   13    1      1.39      0.00
   -3   13    1      1.38      0.00
   -1   13    1      0.31      0.00
    1   13    1     -1.80      0.00
    3   13    1      1.84      0.00
    5   13    1     -0.82      0.00
    7   13    1     -0.38      0.00
    9   13    1     -0.80      0.00
   11   13    1      0.95      0.00
   13   13    1      2.30      0.00
   15   13    1      1.47      0.00
  -14   14    1     -2.33      0.00
  -12   14    1     -1.43      0.00
  -10   14    1      0.47      0.00
   -8   14    1      1.49      0.00
   -6   14    1     -0.12      0.00
   -4   14    1     -2.99      0.00
   -2   14    1     -0.80      0.00
    0   14    1      1.49      0.00
    2   14    1     -0.69      0.00
    4   14    1      0.22      0.00
    6   14    1      0.89      0.00
    8   14    1      1.22      0.00
   10   14    1     -0.26      0.00
   12   14    1     -0.61      0.00
  -11   15    1      1.89      0.00
   -9   15    1     -1.64      0.00
   -7   15    1      0.45      0.00
   -5   15    1      1.27      0.00
   -3   15    1      2.23      0.00
   -1   15    1     -0.40      0.00
    1   15    1     -1.42      0.00
    3   15    1      1.99      0.00
    5   15    1     -2.00      0.00
    7   15    1     -0.06      0.00
    9   15    1     -0.70      0.00
   11   15    1     -0.91      0.00
  -10   16    1      0.00      0.00
   -8   16    1      0.45      0.00
   -6   16    1     -0.97      0.00
   -4   16    1     -2.02      0.00
   -2   16    1     -0.04      0.00
    0   16    1      0.81      0.00
    2   16    1     -1.30      0.00
    4   16    1     -0.22      0.00
    6   16    1      0.15      0.00
    8   16    1      0.45      0.00
   10   16    1      0.53      0.00
   -7   17    1      1.16      0.00
   -5   17    1      2.00      0.00
   -3   17    1      0.86      0.00
   -1   17    1      0.39      0.00
    1   17    1      0.90      0.00
    3   17    1      2.23      0.00
    5   17    1      0.03      0.00
    7   17    1      0.38      0.00
  -22    0    2     -0.87      0.00
  -20    0    2     -1.45      0.00
  -18    0    2      1.55      0.00
  -16    0    2     -1.45      0.00
  -14    0    2      0.65      0.00
  -12    0    2     -3.76      0.00
  -10    0    2    -13.23      0.00
   -8    0    2     -4.88      0.00
   -6    0    2    -29.93      0.00
   -4    0    2    -12.58      0.00
   -2    0    2     11.45      0.00
    0    0    2     -0.53      0.00
    2    0    2     -7.62      0.00
    4    0    2     -6.34      0.00
    6    0    2     -5.52      0.00
    8    0    2     -4.68      0.00
   10    0    2     -0.19      0.00
   12    0    2      0.05      0.00
   14    0    2      3.64      0.00
   16    0    2      3.42      0.00
   18    0    2      0.05      0.00
   20    0    2      1.18      0.00
  -23    1    2      2.86      0.00
  -21    1    2     -0.70      0.00
  -19    1    2      1.10      0.00
  -17    1    2     -0.80      0.00
  -15    1    2      2.00      0.00
  -13    1    2     -2.33      0.00
  -11    1    2      8.30      0.00
   -9    1    2      2.23      0.00
   -7    1    2      4.03      0.00
   -5    1    2     21.93      0.00
   -3    1    2    -15.15      0.00
   -1    1    2      1.85      0.00
    1    1    2      1.15      0.00
    3    1    2     10.84      0.00
    5    1    2     -0.88      0.00
    7    1    2      4.65      0.00
    9    1    2      1.31      0.00
   11    1    2      0.80      0.00
   13    1    2     -1.04      0.00
   15    1    2     -3.11      0.00
   17    1    2     -1.06      0.00
   19    1    2     -0.35      0.00
   21    1    2      1.88      0.00
  -22    2    2      1.17      0.00
  -20    2    2     -1.15      0.00
  -18    2    2      0.52      0.00
  -16    2    2     -1.93      0.00
  -14    2    2      0.85      0.00
  -12    2    2      0.82      0.00
  -10    2    2      0.16      0.00
   -8    2    2     12.53      0.00
   -6    2    2      3.62      0.00
   -4    2    2     10.99      0.00
   -2    2    2      8.40      0.00
    0    2    2     -6.86      0.00
    2    2    2     -8.19      0.00
    4    2    2      2.46      0.00
    6    2    2      4.58      0.00
    8    2    2     -0.42      0.00
   10    2    2     -0.36      0.00
   12    2    2     -1.73      0.00
   14    2    2      0.04      0.00
   16    2    2      1.31      0.00
   18    2    2     -1.07      0.00
   20    2    2     -0.18      0.00
  -23    3    2      0.40      0.00
  -21    3    2     -1.08      0.00
  -19    3    2      0.97      0.00
  -17    3    2      0.17      0.00
  -15    3    2      1.38      0.00
  -13    3    2     -1.28      0.00
  -11    3    2     -1.44      0.00
   -9    3    2     -7.14      0.00
   -7    3    2    -14.76      0.00
   -5    3    2    -12.08      0.00
   -3    3    2    -14.79      0.00
   -1    3    2      9.19      0.00
    1    3    2      4.04      0.00
    3    3    2      2.60      0.00
    5    3    2    -11.32      0.00
    7    3    2     -4.10      0.00
    9    3    2     -0.69      0.00
   11    3    2     -0.06      0.00
   13    3    2      2.51      0.00
   15    3    2      0.88      0.00
   17    3    2      0.51      0.00
   19    3    2     -0.27      0.00
   21    3    2      1.74      0.00
  -22    4    2      1.33      0.00
  -20    4    2     -1.43      0.00
  -18    4    2      1.07      0.00
  -16    4    2     -0.65      0.00
  -14    4    2     -0.61      0.00
  -12    4    2     -0.18      0.00
  -10    4    2      0.34      0.00
   -8    4    2      0.93      0.00
   -6    4    2      8.94      0.00
   -4    4    2     10.39      0.00
   -2    4    2     -3.43      0.00
    0    4    2     -2.38      0.00
    2    4    2     -0.96      0.00
    4    4    2      6.37      0.00
    6    4    2      6.27      0.00
    8    4    2      0.57      0.00
   10    4    2      1.19      0.00
   12    4    2      0.49      0.00
   14    4    2     -2.41      0.00
   16    4    2     -0.05      0.00
   18    4    2     -0.04      0.00
   20    4    2      0.82      0.00
  -21    5    2      0.27      0.00
  -19    5    2     -0.11      0.00
  -17    5    2     -0.74      0.00
  -15    5    2     -0.43      0.00
  -13    5    2      1.96      0.00
  -11    5    2      0.17      0.00
   -9    5    2      6.99      0.00
   -7    5    2      2.15      0.00
   -5    5    2     -5.76      0.00
   -3    5    2     -0.33      0.00
   -1    5    2      2.01      0.00
    1    5    2     -6.37      0.00
    3    5    2     -1.03      0.00
    5    5    2     -3.17      0.00
    7    5    2      0.53      0.00
    9    5    2      2.27      0.00
   11    5    2     -2.53      0.00
   13    5    2     -0.14      0.00
   15    5    2     -0.14      0.00
   17    5    2      0.06      0.00
   19    5    2     -1.33      0.00
  -22    6    2      1.35      0.00
  -20    6    2     -1.29      0.00
  -18    6    2      1.52      0.00
  -16    6    2      0.18      0.00
  -14    6    2     -0.70      0.00
  -12    6    2     -0.88      0.00
  -10    6    2     -1.61      0.00
   -8    6    2     -6.55      0.00
   -6    6    2      3.76      0.00
   -4    6    2      1.64      0.00
   -2    6    2     -2.42      0.00
    0    6    2      8.34      0.00
    2    6    2      2.79      0.00
    4    6    2     -0.37      0.00
    6    6    2     -0.86      0.00
    8    6    2     -2.68      0.00
   10    6    2     -1.14      0.00
   12    6    2      2.61      0.00
   14    6    2      0.19      0.00
   16    6    2      0.92      0.00
   18    6    2     -0.07      0.00
   20    6    2      0.79      0.00
  -21    7    2      0.94      0.00
  -19    7    2     -0.94      0.00
  -17    7    2      0.24      0.00
  -15    7    2     -0.03      0.00
  -13    7    2      2.09      0.00
  -11    7    2     -1.16      0.00
   -9    7    2      1.34      0.00
   -7    7    2     -2.91      0.00
   -5    7    2     -3.11      0.00
   -3    7    2      3.30      0.00
   -1    7    2     -3.90      0.00
    1    7    2     -5.57      0.00
    3    7    2      1.35      0.00
    5    7    2      1.12      0.00
    7    7    2     -1.30      0.00
    9    7    2      1.04      0.00
   11    7    2     -1.22      0.00
   13    7    2     -0.32      0.00
   15    7    2     -0.43      0.00
   17    7    2      0.58      0.00
   19    7    2     -1.01      0.00
  -20    8    2     -0.73      0.00
  -18    8    2      1.01      0.00
  -16    8    2     -0.48      0.00
  -14    8    2     -0.89      0.00
  -12    8    2     -1.65      0.00
  -10    8    2      0.76      0.00
   -8    8    2      2.55      0.00
   -6    8    2      4.25      0.00
   -4    8    2     -3.42      0.00
   -2    8    2     -0.75      0.00
    0    8    2      5.46      0.00
    2    8    2     -1.39      0.00
    4    8    2     -1.57      0.00
    6    8    2      1.29      0.00
    8    8    2      3.28      0.00
   10    8    2      1.05      0.00
   12    8    2      0.35      0.00
   14    8    2     -1.26      0.00
   16    8    2     -0.31      0.00
   18    8    2     -0.16      0.00
  -19    9    2     -1.07      0.00
  -17    9    2      0.13      0.00
  -15    9    2     -1.18      0.00
  -13    9    2      1.36      0.00
  -11    9    2      2.88      0.00
   -9    9    2     -0.98      0.00
   -7    9    2     -2.47      0.00
   -5    9    2      1.18      0.00
   -3    9    2      2.74      0.00
    1    9    2      0.01      0.00
    3    9    2      2.15      0.00
    5    9    2      1.19      0.00
    7    9    2     -1.91      0.00
    9    9    2     -2.73      0.00
   11    9    2     -0.79      0.00
   13    9    2      1.53      0.00
   15    9    2      0.79      0.00
   17    9    2      0.73      0.00
  -18   10    2      0.24      0.00
  -16   10    2      1.59      0.00
  -14   10    2      1.00      0.00
  -12   10    2     -3.23      0.00
  -10   10    2     -2.26      0.00
   -8   10    2      0.32      0.00
   -6   10    2     -0.24      0.00
   -4   10    2     -2.22      0.00
   -2   10    2      2.93      0.00
    0   10    2      3.20      0.00
    2   10    2     -2.45      0.00
    4   10    2     -0.33      0.00
    6   10    2     -2.55      0.00
    8   10    2      0.78      0.00
   10   10    2      2.58      0.00
   12   10    2     -0.47      0.00
   14   10    2     -0.90      0.00
   16   10    2     -0.55      0.00
  -17   11    2     -0.25      0.00
  -15   11    2     -1.86      0.00
  -13   11    2      1.50      0.00
  -11   11    2      3.88      0.00
   -9   11    2     -1.05      0.00
   -7   11    2      1.75      0.00
   -5   11    2      0.41      0.00
   -3   11    2     -0.30      0.00
   -1   11    2     -4.74      0.00
    1   11    2      0.72      0.00
    3   11    2     -0.35      0.00
    5   11    2      1.92      0.00
    7   11    2      3.14      0.00
    9   11    2     -2.41      0.00
   11   11    2     -2.56      0.00
   13   11    2      0.41      0.00
   15   11    2     -0.03      0.00
  -16   12    2      1.78      0.00
  -14   12    2     -1.13      0.00
  -12   12    2     -2.87      0.00
  -10   12    2      0.83      0.00
   -8   12    2      0.27      0.00
   -6   12    2     -0.40      0.00
   -4   12    2     -0.43      0.00
   -2   12    2      2.31      0.00
    0   12    2      1.46      0.00
    2   12    2     -1.03      0.00
    4   12    2      0.97      0.00
    6   12    2     -3.38      0.00
    8   12    2     -0.94      0.00
   10   12    2      4.58      0.00
   12   12    2      0.53      0.00
   14   12    2      0.33      0.00
  -15   13    2     -0.67      0.00
  -13   13    2      2.22      0.00
  -11   13    2     -0.01      0.00
   -9   13    2     -3.11      0.00
   -7   13    2      0.95      0.00
   -5   13    2     -1.27      0.00
   -3   13    2      0.33      0.00
   -1   13    2     -1.49      0.00
    1   13    2      1.55      0.00
    3   13    2     -1.09      0.00
    5   13    2      0.53      0.00
    7   13    2      2.25      0.00
    9   13    2     -1.36      0.00
   11   13    2     -1.90      0.00
   13   13    2      1.00      0.00
  -14   14    2     -1.54      0.00
  -12   14    2      0.01      0.00
  -10   14    2      2.38      0.00
   -8   14    2      0.22      0.00
   -6   14    2      0.65      0.00
   -4   14    2      0.24      0.00
   -2   14    2      0.31      0.00
    0   14    2     -0.97      0.00
    2   14    2     -0.05      0.00
    4   14    2      0.91      0.00
    6   14    2     -0.51      0.00
    8   14    2     -2.42      0.00
   10   14    2      1.18      0.00
  -11   15    2     -1.27      0.00
   -9   15    2     -0.35      0.00
   -7   15    2      0.62      0.00
   -5   15    2     -0.96      0.00
   -3   15    2     -0.30      0.00
   -1   15    2     -0.05      0.00
    1   15    2      0.35      0.00
    3   15    2     -0.87      0.00
    5   15    2      0.32      0.00
    7   15    2      2.17      0.00
    9   15    2      1.79      0.00
   11   15    2      0.47      0.00
  -10   16    2     -0.31      0.00
   -8   16    2     -0.46      0.00
   -6   16    2      0.80      0.00
   -4   16    2      1.65      0.00
   -2   16    2      1.37      0.00
    0   16    2      0.55      0.00
    2   16    2      1.42      0.00
    4   16    2     -0.86      0.00
    6   16    2     -0.68      0.00
    8   16    2     -3.10      0.00
   -7   17    2     -1.22      0.00
   -5   17    2     -2.17      0.00
   -3   17    2     -2.49      0.00
   -1   17    2     -1.39      0.00
    1   17    2     -1.64      0.00
    3   17    2     -0.61      0.00
    5   17    2      0.26      0.00
  -23    1    3      0.10      0.00
  -21    1    3      0.73      0.00
  -19    1    3     -0.31      0.00
  -17    1    3      0.06      0.00
  -15    1    3      1.21      0.00
  -13    1    3      2.73      0.00
  -11    1    3      1.72      0.00
   -9    1    3      6.88      0.00
   -7    1    3      3.40      0.00
   -5    1    3     -5.86      0.00
   -3    1    3     -4.74      0.00
   -1    1    3     -2.87      0.00
    1    1    3      8.08      0.00
    3    1    3      7.83      0.00
    5    1    3      5.06      0.00
    7    1    3     -0.07      0.00
    9    1    3     -0.19      0.00
   11    1    3     -0.79      0.00
   13    1    3     -0.61      0.00
   15    1    3      0.32      0.00
   17    1    3      0.19      0.00
   19    1    3      0.35      0.00
  -22    2    3      0.24      0.00
  -20    2    3     -0.27      0.00
  -18    2    3      0.32      0.00
  -16    2    3      0.02      0.00
  -14    2    3     -3.01      0.00
  -12    2    3     -0.25      0.00
  -10    2    3     -2.83      0.00
   -8    2    3     -7.83      0.00
   -6    2    3      3.01      0.00
   -4    2    3      2.46      0.00
   -2    2    3      2.66      0.00
    0    2    3     -5.65      0.00
    2    2    3     -9.61      0.00
    4    2    3     -7.48      0.00
    6    2    3     -1.86      0.00
    8    2    3      0.96      0.00
   10    2    3      0.06      0.00
   12    2    3      2.55      0.00
   14    2    3      0.39      0.00
   16    2    3     -0.39      0.00
   18    2    3     -0.04      0.00
   20    2    3     -0.99      0.00
  -21    3    3      0.67      0.00
  -19    3    3      0.03      0.00
  -17    3    3      0.08      0.00
  -15    3    3      0.32      0.00
  -13    3    3      0.26      0.00
  -11    3    3     -4.49      0.00
   -9    3    3      2.00      0.00
   -7    3    3      1.30      0.00
   -5    3    3     -0.29      0.00
   -3    3    3      8.89      0.00
   -1    3    3      0.66      0.00
    1    3    3      6.60      0.00
    3    3    3      0.34      0.00
    5    3    3      2.41      0.00
    7    3    3     -1.77      0.00
    9    3    3      0.35      0.00
   11    3    3     -1.22      0.00
   13    3    3     -2.03      0.00
   15    3    3     -0.36      0.00
   17    3    3      0.02      0.00
   19    3    3      0.11      0.00
  -22    4    3      0.60      0.00
  -20    4    3     -1.56      0.00
  -18    4    3     -1.37      0.00
  -16    4    3      0.32      0.00
  -14    4    3      0.23      0.00
  -12    4    3      4.56      0.00
  -10    4    3      4.17      0.00
   -8    4    3      1.05      0.00
   -6    4    3      1.64      0.00
   -4    4    3    -11.28      0.00
   -2    4    3     -4.31      0.00
    0    4    3     -0.11      0.00
    2    4    3      5.59      0.00
    4    4    3      2.24      0.00
    6    4    3      1.22      0.00
    8    4    3      1.67      0.00
   10    4    3     -1.62      0.00
   12    4    3      1.29      0.00
   14    4    3      0.53      0.00
   16    4    3      0.42      0.00
   18    4    3      0.51      0.00
   20    4    3     -0.10      0.00
  -21    5    3      1.91      0.00
  -19    5    3      2.16      0.00
  -17    5    3      0.87      0.00
  -15    5    3     -0.69      0.00
  -13    5    3     -1.67      0.00
  -11    5    3     -2.17      0.00
   -9    5    3     -2.85      0.00
   -7    5    3     -4.33      0.00
   -5    5    3      1.61      0.00
   -3    5    3      7.54      0.00
   -1    5    3     -5.66      0.00
    1    5    3     -4.17      0.00
    3    5    3     -7.37      0.00
    5    5    3      1.87      0.00
    7    5    3     -2.24      0.00
    9    5    3     -0.14      0.00
   11    5    3      1.16      0.00
   13    5    3     -0.27      0.00
   15    5    3     -0.31      0.00
   17    5    3      0.02      0.00
   19    5    3      0.18      0.00
  -20    6    3     -1.67      0.00
  -18    6    3     -1.35      0.00
  -16    6    3      1.00      0.00
  -14    6    3      0.80      0.00
  -12    6    3     -1.49      0.00
  -10    6    3     -1.08      0.00
   -8    6    3      4.38      0.00
   -6    6    3      5.12      0.00
   -4    6    3     -3.61      0.00
   -2    6    3      4.71      0.00
    0    6    3      2.62      0.00
    2    6    3      5.08      0.00
    4    6    3     -2.52      0.00
    6    6    3     -2.84      0.00
    8    6    3      2.57      0.00
   10    6    3     -0.48      0.00
   12    6    3      0.42      0.00
   14    6    3      0.20      0.00
   16    6    3     -0.58      0.00
   18    6    3     -0.74      0.00
  -21    7    3      0.52      0.00
  -19    7    3      1.11      0.00
  -17    7    3     -0.85      0.00
  -15    7    3     -1.34      0.00
  -13    7    3      0.48      0.00
  -11    7    3      4.45      0.00
   -9    7    3     -1.45      0.00
   -7    7    3     -4.24      0.00
   -5    7    3     -0.20      0.00
   -3    7    3     -0.16      0.00
   -1    7    3     -3.39      0.00
    1    7    3      1.56      0.00
    3    7    3     -0.95      0.00
    5    7    3      6.55      0.00
    7    7    3     -0.45      0.00
    9    7    3     -2.08      0.00
   11    7    3     -0.46      0.00
   13    7    3     -1.25      0.00
   15    7    3      0.44      0.00
   17    7    3      0.92      0.00
   19    7    3      0.22      0.00
  -20    8    3     -0.45      0.00
  -18    8    3     -0.93      0.00
  -16    8    3      1.46      0.00
  -14    8    3      1.23      0.00
  -12    8    3     -2.24      0.00
  -10    8    3     -0.34      0.00
   -8    8    3      1.51      0.00
   -6    8    3      0.15      0.00
   -4    8    3     -2.93      0.00
   -2    8    3      4.01      0.00
    0    8    3     -2.93      0.00
    2    8    3      1.79      0.00
    4    8    3     -1.47      0.00
    6    8    3     -2.29      0.00
    8    8    3      2.74      0.00
   10    8    3      0.80      0.00
   12    8    3      1.14      0.00
   14    8    3      0.67      0.00
   16    8    3     -0.52      0.00
  -19    9    3      1.78      0.00
  -17    9    3     -0.01      0.00
  -15    9    3     -1.04      0.00
  -13    9    3     -0.39      0.00
  -11    9    3      0.19      0.00
   -9    9    3     -1.56      0.00
   -7    9    3      1.19      0.00
   -5    9    3      2.94      0.00
   -3    9    3     -2.24      0.00
   -1    9    3     -1.72      0.00
    1    9    3      0.88      0.00
    3    9    3     -4.87      0.00
    5    9    3      0.76      0.00
    7    9    3     -1.72      0.00
    9    9    3     -1.01      0.00
   11    9    3     -0.02      0.00
   13    9    3     -0.73      0.00
   15    9    3     -0.24      0.00
   17    9    3     -0.60      0.00
  -18   10    3     -1.05      0.00
  -16   10    3      0.84      0.00
  -14   10    3      0.27      0.00
  -12   10    3     -0.28      0.00
  -10   10    3      1.64      0.00
   -8   10    3     -1.36      0.00
   -6   10    3     -1.46      0.00
   -4   10    3     -0.52      0.00
   -2   10    3      4.74      0.00
    0   10    3     -2.28      0.00
    2   10    3      3.73      0.00
    4   10    3      2.57      0.00
    6   10    3      0.25      0.00
    8   10    3      0.56      0.00
   10   10    3     -0.81      0.00
   12   10    3     -0.56      0.00
   14   10    3     -0.13      0.00
   16   10    3      0.53      0.00
  -17   11    3     -0.79      0.00
  -15   11    3     -0.34      0.00
  -13   11    3      0.67      0.00
  -11   11    3     -0.64      0.00
   -9   11    3      1.12      0.00
   -7   11    3      1.53      0.00
   -5   11    3      1.01      0.00
   -3   11    3     -2.94      0.00
   -1   11    3      0.77      0.00
    1   11    3      1.77      0.00
    3   11    3     -2.72      0.00
    5   11    3      1.10      0.00
    7   11    3      0.05      0.00
    9   11    3      1.51      0.00
   11   11    3      0.70      0.00
   13   11    3      1.89      0.00
   15   11    3      0.42      0.00
  -16   12    3      0.40      0.00
  -14   12    3     -0.62      0.00
  -12   12    3      0.88      0.00
  -10   12    3     -0.57      0.00
   -8   12    3     -2.25      0.00
   -6   12    3     -1.00      0.00
   -4   12    3      0.40      0.00
   -2   12    3      1.31      0.00
    0   12    3     -4.09      0.00
    2   12    3      0.29      0.00
    4   12    3     -1.63      0.00
    6   12    3     -1.26      0.00
    8   12    3     -1.04      0.00
   10   12    3     -0.41      0.00
   12   12    3     -1.16      0.00
   14   12    3     -2.14      0.00
  -15   13    3      0.84      0.00
  -13   13    3     -0.76      0.00
  -11   13    3     -1.56      0.00
   -9   13    3      1.97      0.00
   -7   13    3      0.62      0.00
   -5   13    3      0.79      0.00
   -3   13    3     -1.53      0.00
   -1   13    3      1.92      0.00
    1   13    3      1.13      0.00
    3   13    3      0.06      0.00
    5   13    3      2.04      0.00
    7   13    3      0.09      0.00
    9   13    3      0.60      0.00
   11   13    3     -1.10      0.00
   13   13    3      1.53      0.00
  -12   14    3      2.48      0.00
  -10   14    3     -0.98      0.00
   -8   14    3      0.36      0.00
   -6   14    3     -0.24      0.00
   -4   14    3      0.56      0.00
   -2   14    3     -0.24      0.00
    0   14    3     -0.88      0.00
    2   14    3      1.94      0.00
    4   14    3     -0.20      0.00
    6   14    3      0.06      0.00
    8   14    3     -0.12      0.00
   10   14    3      0.75      0.00
  -11   15    3     -0.18      0.00
   -9   15    3      1.14      0.00
   -7   15    3     -1.56      0.00
   -5   15    3      0.14      0.00
   -3   15    3      0.45      0.00
   -1   15    3      1.00      0.00
    1   15    3     -1.32      0.00
    3   15    3     -1.48      0.00
    5   15    3     -0.08      0.00
    7   15    3     -0.12      0.00
    9   15    3      0.13      0.00
   -8   16    3      0.63      0.00
   -6   16    3      0.30      0.00
   -4   16    3     -0.57      0.00
   -2   16    3     -1.53      0.00
    0   16    3      0.17      0.00
    2   16    3      0.05      0.00
    4   16    3     -0.44      0.00
    6   16    3     -0.85      0.00
   -5   17    3      0.20      0.00
   -3   17    3      1.03      0.00
   -1   17    3     -0.44      0.00
    1   17    3      0.27      0.00
    3   17    3      1.25      0.00
  -22    0    4     -3.62      0.00
  -20    0    4      2.02      0.00
  -18    0    4      0.88      0.00
  -16    0    4      1.85      0.00
  -14    0    4      0.63      0.00
  -12    0    4      3.76      0.00
  -10    0    4     -1.53      0.00
   -8    0    4     -4.16      0.00
   -6    0    4      0.59      0.00
   -4    0    4     -5.83      0.00
   -2    0    4      8.33      0.00
    0    0    4      8.11      0.00
    2    0    4      9.88      0.00
    4    0    4      0.54      0.00
    6    0    4      2.60      0.00
    8    0    4      3.66      0.00
   10    0    4     -0.44      0.00
   12    0    4      0.98      0.00
   14    0    4      0.30      0.00
   16    0    4      0.78      0.00
   18    0    4     -0.03      0.00
  -21    1    4      0.91      0.00
  -19    1    4     -0.97      0.00
  -17    1    4     -0.52      0.00
  -15    1    4     -0.61      0.00
  -13    1    4     -1.52      0.00
  -11    1    4     -2.09      0.00
   -9    1    4      3.93      0.00
   -7    1    4     -2.71      0.00
   -5    1    4      1.57      0.00
   -3    1    4     -0.83      0.00
   -1    1    4     -5.49      0.00
    1    1    4     -7.36      0.00
    3    1    4     -2.74      0.00
    5    1    4     -0.97      0.00
    7    1    4     -2.20      0.00
    9    1    4     -1.08      0.00
   11    1    4      1.28      0.00
   13    1    4     -0.11      0.00
   15    1    4     -0.41      0.00
   17    1    4      0.05      0.00
   19    1    4      0.15      0.00
  -22    2    4     -3.50      0.00
  -20    2    4      0.87      0.00
  -18    2    4     -1.11      0.00
  -16    2    4     -1.09      0.00
  -14    2    4     -0.32      0.00
  -12    2    4      1.15      0.00
  -10    2    4     -1.57      0.00
   -8    2    4      2.66      0.00
   -6    2    4      7.84      0.00
   -4    2    4     -2.48      0.00
   -2    2    4      1.50      0.00
    0    2    4     -3.21      0.00
    2    2    4      3.41      0.00
    4    2    4     -0.93      0.00
    6    2    4      0.88      0.00
    8    2    4      1.42      0.00
   10    2    4     -2.37      0.00
   12    2    4     -0.78      0.00
   14    2    4     -1.20      0.00
   16    2    4     -0.01      0.00
   18    2    4     -0.45      0.00
  -21    3    4     -0.48      0.00
  -19    3    4      0.03      0.00
  -17    3    4      2.20      0.00
  -15    3    4      1.79      0.00
  -13    3    4      0.60      0.00
  -11    3    4      1.52      0.00
   -9    3    4     -0.07      0.00
   -7    3    4     -9.09      0.00
   -5    3    4     -0.66      0.00
   -3    3    4      2.35      0.00
   -1    3    4      7.26      0.00
    1    3    4      2.51      0.00
    3    3    4     -0.88      0.00
    5    3    4     -0.13      0.00
    7    3    4     -1.41      0.00
    9    3    4     -0.96      0.00
   11    3    4      1.11      0.00
   13    3    4      0.81      0.00
   15    3    4      0.65      0.00
   17    3    4      0.51      0.00
   19    3    4     -0.31      0.00
  -22    4    4     -0.08      0.00
  -20    4    4      1.80      0.00
  -18    4    4     -0.62      0.00
  -16    4    4     -1.97      0.00
  -14    4    4      0.15      0.00
  -12    4    4     -1.89      0.00
  -10    4    4     -1.83      0.00
   -8    4    4      3.41      0.00
   -6    4    4      2.80      0.00
   -4    4    4     -5.03      0.00
   -2    4    4     -2.35      0.00
    0    4    4     -6.94      0.00
    2    4    4      2.75      0.00
    4    4    4      1.04      0.00
    6    4    4      0.33      0.00
    8    4    4      3.31      0.00
   10    4    4      0.91      0.00
   12    4    4      0.92      0.00
   14    4    4     -0.30      0.00
   16    4    4      0.22      0.00
   18    4    4      0.31      0.00
  -21    5    4     -1.54      0.00
  -19    5    4     -0.08      0.00
  -17    5    4      0.49      0.00
  -15    5    4     -1.47      0.00
  -13    5    4     -0.06      0.00
  -11    5    4      1.41      0.00
   -9    5    4      0.19      0.00
   -7    5    4     -1.80      0.00
   -5    5    4      4.45      0.00
   -3    5    4     -1.87      0.00
   -1    5    4      1.47      0.00
    1    5    4     -0.60      0.00
    3    5    4     -3.56      0.00
    5    5    4      0.72      0.00
    7    5    4     -0.91      0.00
    9    5    4     -2.51      0.00
   11    5    4     -0.91      0.00
   13    5    4     -1.21      0.00
   15    5    4     -0.93      0.00
   17    5    4      0.26      0.00
  -20    6    4     -0.37      0.00
  -18    6    4     -0.30      0.00
  -16    6    4      0.76      0.00
  -14    6    4      1.93      0.00
  -12    6    4     -1.34      0.00
  -10    6    4      0.98      0.00
   -8    6    4      0.20      0.00
   -6    6    4     -1.85      0.00
   -4    6    4      0.42      0.00
   -2    6    4      6.30      0.00
    0    6    4     -0.97      0.00
    2    6    4      1.93      0.00
    4    6    4      0.48      0.00
    6    6    4     -2.57      0.00
    8    6    4      1.58      0.00
   10    6    4      0.54      0.00
   12    6    4      0.81      0.00
   14    6    4      1.41      0.00
   16    6    4     -0.47      0.00
   18    6    4     -0.84      0.00
  -19    7    4      0.97      0.00
  -17    7    4      0.40      0.00
  -15    7    4     -1.16      0.00
  -13    7    4      2.99      0.00
  -11    7    4     -0.84      0.00
   -9    7    4     -0.88      0.00
   -7    7    4      1.44      0.00
   -5    7    4      2.05      0.00
   -3    7    4     -5.25      0.00
   -1    7    4     -0.52      0.00
    1    7    4      3.14      0.00
    3    7    4      0.08      0.00
    5    7    4      2.55      0.00
    7    7    4      0.43      0.00
    9    7    4     -1.29      0.00
   11    7    4     -0.24      0.00
   13    7    4     -0.58      0.00
   15    7    4     -0.39      0.00
   17    7    4      2.63      0.00
  -20    8    4     -0.88      0.00
  -18    8    4     -0.04      0.00
  -16    8    4     -0.16      0.00
  -14    8    4     -2.34      0.00
  -12    8    4     -2.71      0.00
  -10    8    4      1.92      0.00
   -8    8    4     -1.91      0.00
   -6    8    4     -2.84      0.00
   -4    8    4      0.59      0.00
   -2    8    4      1.57      0.00
    0    8    4     -4.87      0.00
    2    8    4     -3.13      0.00
    4    8    4     -0.47      0.00
    6    8    4     -1.33      0.00
    8    8    4      1.68      0.00
   10    8    4      1.04      0.00
   12    8    4     -0.34      0.00
   14    8    4      0.62      0.00
   16    8    4     -1.17      0.00
  -19    9    4      0.34      0.00
  -17    9    4      0.12      0.00
  -15    9    4     -0.44      0.00
  -13    9    4      3.28      0.00
  -11    9    4     -1.52      0.00
   -9    9    4      0.83      0.00
   -7    9    4      3.09      0.00
   -5    9    4     -0.10      0.00
   -3    9    4     -2.34      0.00
   -1    9    4      1.64      0.00
    1    9    4      3.10      0.00
    3    9    4     -0.55      0.00
    5    9    4     -0.03      0.00
    7    9    4     -0.93      0.00
    9    9    4     -0.86      0.00
   11    9    4     -0.17      0.00
   13    9    4      0.60      0.00
   15    9    4     -0.96      0.00
  -18   10    4      0.15      0.00
  -16   10    4      0.39      0.00
  -14   10    4     -0.25      0.00
  -12   10    4      0.96      0.00
  -10   10    4      0.77      0.00
   -8   10    4     -1.88      0.00
   -6   10    4     -0.07      0.00
   -4   10    4      4.02      0.00
   -2   10    4      2.03      0.00
    0   10    4      0.02      0.00
    2   10    4      1.62      0.00
    4   10    4      1.95      0.00
    6   10    4      0.12      0.00
    8   10    4      0.18      0.00
   10   10    4     -0.21      0.00
   12   10    4     -0.72      0.00
   14   10    4      0.46      0.00
  -17   11    4      0.60      0.00
  -15   11    4     -0.24      0.00
  -13   11    4     -0.26      0.00
  -11   11    4     -1.78      0.00
   -9   11    4      0.65      0.00
   -7   11    4      0.41      0.00
   -5   11    4     -3.33      0.00
   -3   11    4     -2.64      0.00
   -1   11    4     -0.89      0.00
    1   11    4     -2.11      0.00
    3   11    4     -2.67      0.00
    5   11    4     -0.35      0.00
    7   11    4      0.11      0.00
    9   11    4      0.66      0.00
   11   11    4      0.46      0.00
   13   11    4      0.54      0.00
  -16   12    4     -1.07      0.00
  -14   12    4     -0.26      0.00
  -12   12    4      1.67      0.00
  -10   12    4     -0.80      0.00
   -8   12    4      0.19      0.00
   -6   12    4      0.79      0.00
   -4   12    4      1.99      0.00
   -2   12    4     -1.64      0.00
    0   12    4      0.06      0.00
    2   12    4      1.29      0.00
    4   12    4      1.09      0.00
    6   12    4     -0.42      0.00
    8   12    4      0.45      0.00
   10   12    4     -0.89      0.00
   12   12    4     -0.42      0.00
  -13   13    4     -1.48      0.00
  -11   13    4     -0.33      0.00
   -9   13    4      1.27      0.00
   -7   13    4      0.19      0.00
   -5   13    4     -1.21      0.00
   -3   13    4      2.14      0.00
   -1   13    4      2.57      0.00
    1   13    4      0.42      0.00
    3   13    4     -0.59      0.00
    5   13    4     -0.26      0.00
    7   13    4     -0.18      0.00
    9   13    4      0.10      0.00
  -12   14    4      1.96      0.00
  -10   14    4     -1.71      0.00
   -8   14    4     -1.06      0.00
   -6   14    4     -0.14      0.00
   -4   14    4      0.57      0.00
   -2   14    4     -2.81      0.00
    0   14    4      0.94      0.00
    2   14    4      0.34      0.00
    4   14    4      1.84      0.00
    6   14    4     -0.83      0.00
    8   14    4     -0.01      0.00
   -9   15    4      1.58      0.00
   -7   15    4      0.73      0.00
   -5   15    4     -1.38      0.00
   -3   15    4      0.29      0.00
   -1   15    4     -2.11      0.00
    1   15    4     -3.70      0.00
    3   15    4     -2.44      0.00
    5   15    4     -0.92      0.00
    7   15    4      1.52      0.00
   -6   16    4      0.48      0.00
   -4   16    4      1.68      0.00
   -2   16    4      0.53      0.00
    0   16    4      5.74      0.00
    2   16    4      2.43      0.00
    4   16    4      2.46      0.00
  -21    1    5     -0.29      0.00
  -19    1    5     -1.03      0.00
  -17    1    5      0.20      0.00
  -15    1    5      0.15      0.00
  -13    1    5      0.20      0.00
  -11    1    5      1.72      0.00
   -9    1    5      0.88      0.00
   -7    1    5      0.10      0.00
   -5    1    5     -1.00      0.00
   -3    1    5     -2.70      0.00
   -1    1    5     -1.00      0.00
    1    1    5      0.85      0.00
    3    1    5     -0.37      0.00
    5    1    5     -0.32      0.00
    7    1    5     -0.98      0.00
    9    1    5     -0.27      0.00
   11    1    5      0.44      0.00
   13    1    5     -0.55      0.00
   15    1    5      0.37      0.00
   17    1    5      0.16      0.00
  -22    2    5     -0.60      0.00
  -20    2    5      0.43      0.00
  -18    2    5      0.48      0.00
  -16    2    5     -0.44      0.00
  -14    2    5      0.91      0.00
  -12    2    5     -0.69      0.00
  -10    2    5     -1.63      0.00
   -8    2    5      0.99      0.00
   -6    2    5     -0.41      0.00
   -4    2    5      2.75      0.00
   -2    2    5      2.58      0.00
    0    2    5     -0.23      0.00
    2    2    5     -0.31      0.00
    4    2    5      0.31      0.00
    6    2    5     -0.32      0.00
    8    2    5     -0.13      0.00
   10    2    5     -1.14      0.00
   12    2    5     -0.17      0.00
   14    2    5      0.20      0.00
   16    2    5     -0.43      0.00
   18    2    5     -0.53      0.00
  -21    3    5      0.61      0.00
  -19    3    5      0.33      0.00
  -17    3    5      1.46      0.00
  -15    3    5     -0.78      0.00
  -13    3    5     -0.78      0.00
  -11    3    5      0.72      0.00
   -9    3    5     -1.65      0.00
   -7    3    5      0.06      0.00
   -5    3    5      1.03      0.00
   -3    3    5     -1.70      0.00
   -1    3    5     -1.40      0.00
    1    3    5      0.45      0.00
    3    3    5     -1.97      0.00
    5    3    5      1.20      0.00
    7    3    5      0.97      0.00
    9    3    5      1.27      0.00
   11    3    5      1.81      0.00
   13    3    5     -0.58      0.00
   15    3    5      1.06      0.00
   17    3    5      0.03      0.00
  -20    4    5     -1.22      0.00
  -18    4    5     -1.97      0.00
  -16    4    5     -1.31      0.00
  -14    4    5      0.13      0.00
  -12    4    5     -0.42      0.00
  -10    4    5      0.81      0.00
   -8    4    5      1.38      0.00
   -6    4    5     -3.94      0.00
   -4    4    5     -1.73      0.00
   -2    4    5      0.79      0.00
    0    4    5      0.67      0.00
    2    4    5      2.43      0.00
    4    4    5      1.98      0.00
    6    4    5     -0.52      0.00
    8    4    5     -0.30      0.00
   10    4    5     -0.98      0.00
   12    4    5     -0.88      0.00
   14    4    5     -0.19      0.00
   16    4    5     -0.74      0.00
  -21    5    5      0.19      0.00
  -19    5    5      0.88      0.00
  -17    5    5      1.62      0.00
  -15    5    5      0.04      0.00
  -13    5    5      1.69      0.00
  -11    5    5      0.54      0.00
   -9    5    5     -1.66      0.00
   -7    5    5      3.25      0.00
   -5    5    5      3.43      0.00
   -3    5    5      1.05      0.00
   -1    5    5     -0.90      0.00
    1    5    5     -0.92      0.00
    3    5    5     -4.18      0.00
    5    5    5     -1.18      0.00
    7    5    5     -1.14      0.00
    9    5    5     -0.45      0.00
   11    5    5      0.81      0.00
   13    5    5     -0.19      0.00
   15    5    5      0.79      0.00
   17    5    5     -0.31      0.00
  -20    6    5     -0.25      0.00
  -18    6    5      0.73      0.00
  -16    6    5      1.40      0.00
  -14    6    5     -0.42      0.00
  -12    6    5     -1.15      0.00
  -10    6    5      0.82      0.00
   -8    6    5     -0.69      0.00
   -6    6    5     -2.40      0.00
   -4    6    5      0.30      0.00
   -2    6    5      0.43      0.00
    0    6    5     -0.47      0.00
    2    6    5      2.26      0.00
    4    6    5      1.88      0.00
    6    6    5      1.06      0.00
    8    6    5      0.23      0.00
   10    6    5      0.13      0.00
   12    6    5     -0.54      0.00
   14    6    5      0.37      0.00
   16    6    5     -0.41      0.00
  -19    7    5     -1.35      0.00
  -17    7    5     -1.72      0.00
  -15    7    5     -1.93      0.00
  -13    7    5      0.38      0.00
  -11    7    5     -0.54      0.00
   -9    7    5     -0.46      0.00
   -7    7    5      2.10      0.00
   -5    7    5     -2.92      0.00
   -3    7    5     -1.68      0.00
   -1    7    5      0.76      0.00
    1    7    5      0.42      0.00
    3    7    5     -0.83      0.00
    5    7    5      0.11      0.00
    7    7    5      0.34      0.00
    9    7    5      0.84      0.00
   11    7    5      0.24      0.00
   13    7    5      0.16      0.00
   15    7    5      0.12      0.00
  -18    8    5      0.87      0.00
  -16    8    5      0.37      0.00
  -14    8    5     -0.01      0.00
  -12    8    5      0.76      0.00
  -10    8    5     -0.06      0.00
   -8    8    5     -2.60      0.00
   -6    8    5      0.91      0.00
   -4    8    5      3.70      0.00
   -2    8    5     -0.12      0.00
    0    8    5     -2.09      0.00
    2    8    5      0.16      0.00
    4    8    5     -0.89      0.00
    6    8    5     -0.10      0.00
    8    8    5     -1.19      0.00
   10    8    5      0.01      0.00
   12    8    5     -0.23      0.00
   14    8    5      0.19      0.00
  -17    9    5      1.70      0.00
  -15    9    5      1.13      0.00
  -13    9    5     -0.01      0.00
  -11    9    5     -0.28      0.00
   -9    9    5      2.58      0.00
   -7    9    5      2.31      0.00
   -5    9    5     -3.42      0.00
   -3    9    5     -0.73      0.00
   -1    9    5      2.19      0.00
    1    9    5      0.43      0.00
    3    9    5      0.17      0.00
    5    9    5     -0.58      0.00
    7    9    5      0.25      0.00
    9    9    5      0.12      0.00
   11    9    5     -1.06      0.00
   13    9    5     -0.49      0.00
  -16   10    5     -1.73      0.00
  -14   10    5     -0.37      0.00
  -12   10    5      1.14      0.00
  -10   10    5     -1.34      0.00
   -8   10    5     -2.12      0.00
   -6   10    5      1.67      0.00
   -4   10    5      2.06      0.00
   -2   10    5     -1.11      0.00
    0   10    5     -1.01      0.00
    2   10    5      0.74      0.00
    4   10    5      0.90      0.00
    6   10    5      0.47      0.00
    8   10    5     -0.55      0.00
   10   10    5      0.83      0.00
   12   10    5      1.54      0.00
  -15   11    5     -0.09      0.00
  -13   11    5     -0.86      0.00
  -11   11    5     -0.96      0.00
   -9   11    5      0.90      0.00
   -7   11    5     -1.16      0.00
   -5   11    5     -2.65      0.00
   -3   11    5     -0.14      0.00
   -1   11    5     -0.06      0.00
    1   11    5     -0.45      0.00
    3   11    5     -0.24      0.00
    5   11    5     -0.69      0.00
    7   11    5      1.15      0.00
    9   11    5      0.41      0.00
   11   11    5     -0.84      0.00
  -14   12    5     -0.06      0.00
  -12   12    5      1.24      0.00
  -10   12    5      0.46      0.00
   -8   12    5      1.40      0.00
   -6   12    5      1.79      0.00
   -4   12    5      0.79      0.00
   -2   12    5      0.51      0.00
    0   12    5      1.34      0.00
    2   12    5     -1.00      0.00
    4   12    5     -0.17      0.00
    6   12    5     -0.18      0.00
    8   12    5     -0.63      0.00
   10   12    5     -0.26      0.00
  -13   13    5      0.63      0.00
  -11   13    5     -1.26      0.00
   -9   13    5     -1.38      0.00
   -7   13    5     -1.85      0.00
   -5   13    5     -0.07      0.00
   -3   13    5      0.78      0.00
   -1   13    5     -1.51      0.00
    1   13    5      0.42      0.00
    3   13    5      1.52      0.00
    5   13    5     -0.87      0.00
    7   13    5     -1.00      0.00
    9   13    5     -0.39      0.00
  -10   14    5      1.20      0.00
   -8   14    5      2.23      0.00
   -6   14    5     -0.02      0.00
   -4   14    5     -1.60      0.00
   -2   14    5     -1.25      0.00
    0   14    5      1.00      0.00
    2   14    5     -1.36      0.00
    4   14    5      0.04      0.00
    6   14    5      2.46      0.00
   -7   15    5     -0.94      0.00
   -5   15    5      1.25      0.00
   -3   15    5      2.21      0.00
   -1   15    5     -0.29      0.00
    1   15    5     -0.61      0.00
    3   15    5      0.57      0.00
  -20    0    6     -0.17      0.00
  -18    0    6     -0.34      0.00
  -16    0    6      1.20      0.00
  -14    0    6      2.81      0.00
  -12    0    6      0.44      0.00
  -10    0    6     -1.25      0.00
   -8    0    6     -1.23      0.00
   -6    0    6     -1.39      0.00
   -4    0    6      0.33      0.00
   -2    0    6      2.98      0.00
    0    0    6      1.39      0.00
    2    0    6      4.52      0.00
    4    0    6      0.84      0.00
    6    0    6      1.64      0.00
    8    0    6      1.33      0.00
   10    0    6     -0.56      0.00
   12    0    6      0.61      0.00
   14    0    6      0.42      0.00
   16    0    6      1.56      0.00
  -21    1    6      1.81      0.00
  -19    1    6     -0.47      0.00
  -17    1    6      0.84      0.00
  -15    1    6     -1.79      0.00
  -13    1    6     -0.90      0.00
  -11    1    6      1.12      0.00
   -9    1    6      0.93      0.00
   -7    1    6      1.11      0.00
   -5    1    6      0.71      0.00
   -3    1    6     -1.41      0.00
   -1    1    6     -0.93      0.00
    1    1    6     -2.23      0.00
    3    1    6     -2.12      0.00
    5    1    6     -0.60      0.00
    7    1    6     -1.33      0.00
    9    1    6     -0.70      0.00
   11    1    6      0.66      0.00
   13    1    6     -1.32      0.00
   15    1    6     -0.08      0.00
  -20    2    6      0.70      0.00
  -18    2    6     -0.86      0.00
  -16    2    6     -0.37      0.00
  -14    2    6     -0.19      0.00
  -12    2    6     -1.28      0.00
  -10    2    6     -0.70      0.00
   -8    2    6     -0.18      0.00
   -6    2    6      0.25      0.00
   -4    2    6     -1.46      0.00
   -2    2    6      0.44      0.00
    0    2    6     -1.83      0.00
    2    2    6      1.54      0.00
    4    2    6     -0.60      0.00
    6    2    6      0.62      0.00
    8    2    6      0.95      0.00
   10    2    6     -0.16      0.00
   12    2    6      1.02      0.00
   14    2    6      0.12      0.00
   16    2    6     -0.08      0.00
  -19    3    6     -0.58      0.00
  -17    3    6      0.47      0.00
  -15    3    6      0.61      0.00
  -13    3    6      1.48      0.00
  -11    3    6      0.46      0.00
   -9    3    6     -1.04      0.00
   -7    3    6     -0.88      0.00
   -5    3    6      0.34      0.00
   -3    3    6      1.88      0.00
   -1    3    6      1.70      0.00
    1    3    6      1.66      0.00
    3    3    6      0.22      0.00
    5    3    6      0.75      0.00
    7    3    6     -0.68      0.00
    9    3    6     -0.59      0.00
   11    3    6     -0.37      0.00
   13    3    6     -0.83      0.00
   15    3    6      0.46      0.00
  -20    4    6      1.13      0.00
  -18    4    6      0.00      0.00
  -16    4    6      0.21      0.00
  -14    4    6     -0.81      0.00
  -12    4    6     -0.54      0.00
  -10    4    6      1.67      0.00
   -8    4    6      0.31      0.00
   -6    4    6      1.40      0.00
   -4    4    6     -1.95      0.00
   -2    4    6      0.28      0.00
    0    4    6     -2.44      0.00
    2    4    6      0.59      0.00
    4    4    6     -0.44      0.00
    6    4    6      0.39      0.00
    8    4    6      0.78      0.00
   10    4    6      0.26      0.00
   12    4    6      0.39      0.00
   14    4    6     -0.13      0.00
  -19    5    6      0.57      0.00
  -17    5    6     -0.77      0.00
  -15    5    6      0.51      0.00
  -13    5    6      0.57      0.00
  -11    5    6     -0.73      0.00
   -9    5    6     -0.11      0.00
   -7    5    6      1.30      0.00
   -5    5    6     -0.64      0.00
   -3    5    6     -0.05      0.00
   -1    5    6     -0.47      0.00
    1    5    6     -0.11      0.00
    3    5    6     -1.82      0.00
    5    5    6     -0.75      0.00
    7    5    6     -0.80      0.00
    9    5    6     -0.12      0.00
   11    5    6     -0.61      0.00
   13    5    6      1.00      0.00
   15    5    6     -0.44      0.00
  -18    6    6      0.76      0.00
  -16    6    6     -0.13      0.00
  -14    6    6     -0.87      0.00
  -12    6    6     -0.44      0.00
  -10    6    6      0.39      0.00
   -8    6    6     -3.11      0.00
   -6    6    6     -0.75      0.00
   -4    6    6      0.00      0.00
   -2    6    6      1.20      0.00
    0    6    6     -0.62      0.00
    2    6    6      2.64      0.00
    4    6    6      1.72      0.00
    6    6    6      0.71      0.00
    8    6    6      0.03      0.00
   10    6    6      0.75      0.00
   12    6    6     -0.09      0.00
   14    6    6     -1.01      0.00
  -17    7    6     -2.01      0.00
  -15    7    6      1.11      0.00
  -13    7    6      0.70      0.00
  -11    7    6     -0.78      0.00
   -9    7    6      1.03      0.00
   -7    7    6      2.87      0.00
   -5    7    6     -0.15      0.00
   -3    7    6      0.69      0.00
   -1    7    6      0.82      0.00
    1    7    6     -0.41      0.00
    3    7    6     -2.18      0.00
    5    7    6     -0.55      0.00
    7    7    6      0.40      0.00
    9    7    6      0.11      0.00
   11    7    6     -1.62      0.00
   13    7    6      1.63      0.00
  -18    8    6      2.73      0.00
  -16    8    6      0.19      0.00
  -14    8    6     -0.39      0.00
  -12    8    6      0.43      0.00
  -10    8    6      0.87      0.00
   -8    8    6     -1.27      0.00
   -6    8    6     -0.54      0.00
   -4    8    6     -0.08      0.00
   -2    8    6     -1.47      0.00
    0    8    6     -1.19      0.00
    2    8    6      0.93      0.00
    4    8    6      0.32      0.00
    6    8    6     -0.89      0.00
    8    8    6     -0.96      0.00
   10    8    6      0.37      0.00
   12    8    6      0.18      0.00
  -15    9    6      0.46      0.00
  -13    9    6      0.17      0.00
  -11    9    6     -0.65      0.00
   -9    9    6      0.78      0.00
   -7    9    6      0.01      0.00
   -5    9    6     -1.16      0.00
   -3    9    6      0.58      0.00
   -1    9    6      0.23      0.00
    1    9    6      0.38      0.00
    3    9    6     -0.45      0.00
    5    9    6      0.96      0.00
    7    9    6      1.25      0.00
    9    9    6      0.80      0.00
   11    9    6     -0.01      0.00
  -16   10    6     -0.37      0.00
  -14   10    6     -0.16      0.00
  -12   10    6     -0.48      0.00
  -10   10    6     -1.37      0.00
   -8   10    6      0.00      0.00
   -6   10    6      0.71      0.00
   -4   10    6      1.11      0.00
   -2   10    6      0.25      0.00
    0   10    6      1.16      0.00
    2   10    6      0.69      0.00
    4   10    6      0.07      0.00
    6   10    6     -1.09      0.00
    8   10    6     -0.26      0.00
   10   10    6     -0.40      0.00
  -15   11    6     -0.02      0.00
  -13   11    6      0.42      0.00
  -11   11    6      0.47      0.00
   -9   11    6      1.06      0.00
   -7   11    6     -0.99      0.00
   -5   11    6      0.13      0.00
   -3   11    6      0.34      0.00
   -1   11    6     -1.62      0.00
    1   11    6     -1.00      0.00
    3   11    6     -1.57      0.00
    5   11    6      0.61      0.00
    7   11    6      0.39      0.00
    9   11    6     -1.10      0.00
  -12   12    6      0.28      0.00
  -10   12    6     -0.28      0.00
   -8   12    6      0.97      0.00
   -6   12    6     -1.08      0.00
   -4   12    6     -1.00      0.00
   -2   12    6     -0.73      0.00
    0   12    6      0.69      0.00
    2   12    6      0.64      0.00
    4   12    6      0.35      0.00
    6   12    6     -0.93      0.00
  -11   13    6     -0.79      0.00
   -9   13    6     -0.07      0.00
   -7   13    6     -0.10      0.00
   -5   13    6      1.57      0.00
   -3   13    6      0.53      0.00
   -1   13    6      0.58      0.00
    1   13    6      1.23      0.00
    3   13    6      0.05      0.00
    5   13    6      0.49      0.00
   -8   14    6      0.01      0.00
   -6   14    6     -1.08      0.00
   -4   14    6      0.62      0.00
   -2   14    6     -0.01      0.00
    0   14    6     -0.94      0.00
    2   14    6     -1.55      0.00
  -19    1    7      0.52      0.00
  -17    1    7     -0.62      0.00
  -15    1    7     -0.20      0.00
  -13    1    7     -0.19      0.00
  -11    1    7     -0.61      0.00
   -9    1    7     -0.27      0.00
   -7    1    7     -0.55      0.00
   -5    1    7     -1.15      0.00
   -3    1    7     -0.95      0.00
   -1    1    7     -1.43      0.00
    1    1    7     -1.10      0.00
    3    1    7     -1.54      0.00
    5    1    7     -0.56      0.00
    7    1    7      0.08      0.00
    9    1    7     -0.03      0.00
   11    1    7      0.35      0.00
   13    1    7     -0.22      0.00
  -18    2    7     -0.05      0.00
  -16    2    7      0.28      0.00
  -14    2    7      0.00      0.00
  -12    2    7      0.03      0.00
  -10    2    7      0.43      0.00
   -8    2    7      0.31      0.00
   -6    2    7      1.35      0.00
   -4    2    7      1.27      0.00
   -2    2    7      1.23      0.00
    0    2    7      0.88      0.00
    2    2    7      0.48      0.00
    4    2    7      0.81      0.00
    6    2    7     -0.85      0.00
    8    2    7      0.35      0.00
   10    2    7     -0.16      0.00
   12    2    7     -0.32      0.00
   14    2    7      0.69      0.00
  -19    3    7      1.59      0.00
  -17    3    7     -0.39      0.00
  -15    3    7      0.62      0.00
  -13    3    7      0.66      0.00
  -11    3    7     -0.03      0.00
   -9    3    7      0.00      0.00
   -7    3    7     -0.14      0.00
   -5    3    7     -0.90      0.00
   -3    3    7      0.00      0.00
   -1    3    7      0.22      0.00
    1    3    7      1.33      0.00
    3    3    7      1.05      0.00
    5    3    7      0.79      0.00
    7    3    7     -0.06      0.00
    9    3    7     -0.71      0.00
   11    3    7      0.00      0.00
   13    3    7      0.46      0.00
  -18    4    7      0.00      0.00
  -16    4    7     -0.85      0.00
  -14    4    7     -0.31      0.00
  -12    4    7     -0.38      0.00
  -10    4    7      0.17      0.00
   -8    4    7     -0.21      0.00
   -6    4    7     -0.95      0.00
   -4    4    7     -0.35      0.00
   -2    4    7     -1.58      0.00
    0    4    7     -1.73      0.00
    2    4    7     -2.23      0.00
    4    4    7     -0.69      0.00
    6    4    7      0.65      0.00
    8    4    7      1.61      0.00
   10    4    7      0.38      0.00
   12    4    7     -0.53      0.00
  -17    5    7     -0.27      0.00
  -15    5    7     -0.02      0.00
  -13    5    7     -0.20      0.00
  -11    5    7     -0.55      0.00
   -9    5    7     -0.03      0.00
   -7    5    7      1.11      0.00
   -5    5    7      0.67      0.00
   -3    5    7      1.43      0.00
   -1    5    7      1.68      0.00
    1    5    7      1.16      0.00
    3    5    7      0.84      0.00
    5    5    7     -1.33      0.00
    7    5    7     -1.87      0.00
    9    5    7     -0.32      0.00
   11    5    7      0.27      0.00
   13    5    7      0.89      0.00
  -18    6    7      0.62      0.00
  -16    6    7     -0.03      0.00
  -14    6    7      1.39      0.00
  -12    6    7      0.02      0.00
  -10    6    7     -0.19      0.00
   -8    6    7     -0.04      0.00
   -6    6    7     -0.68      0.00
   -4    6    7      0.44      0.00
   -2    6    7     -1.62      0.00
    0    6    7     -0.29      0.00
    2    6    7      0.18      0.00
    4    6    7      0.18      0.00
    6    6    7      0.95      0.00
    8    6    7      0.00      0.00
   10    6    7     -1.14      0.00
   12    6    7     -0.34      0.00
  -17    7    7      0.04      0.00
  -15    7    7     -1.02      0.00
  -13    7    7      0.30      0.00
  -11    7    7      0.44      0.00
   -9    7    7      0.85      0.00
   -7    7    7     -0.44      0.00
   -5    7    7     -1.34      0.00
   -3    7    7      0.65      0.00
   -1    7    7      0.42      0.00
    1    7    7     -0.77      0.00
    3    7    7     -0.04      0.00
    5    7    7      0.72      0.00
    7    7    7      1.09      0.00
    9    7    7      0.96      0.00
   11    7    7      0.77      0.00
  -16    8    7     -0.45      0.00
  -14    8    7      0.40      0.00
  -12    8    7     -0.98      0.00
  -10    8    7     -0.79      0.00
   -8    8    7      0.26      0.00
   -6    8    7      1.20      0.00
   -4    8    7      0.30      0.00
   -2    8    7     -1.45      0.00
    0    8    7      0.22      0.00
    2    8    7      0.93      0.00
    4    8    7     -0.79      0.00
    6    8    7     -1.81      0.00
    8    8    7     -0.39      0.00
   10    8    7     -0.53      0.00
  -13    9    7      0.78      0.00
  -11    9    7     -0.06      0.00
   -9    9    7      0.57      0.00
   -7    9    7     -1.04      0.00
   -5    9    7     -0.52      0.00
   -3    9    7      2.36      0.00
   -1    9    7      0.90      0.00
    1    9    7     -0.03      0.00
    3    9    7     -0.40      0.00
    5    9    7      1.10      0.00
    7    9    7      1.38      0.00
    9    9    7     -0.85      0.00
  -12   10    7     -0.60      0.00
  -10   10    7     -0.45      0.00
   -8   10    7      0.01      0.00
   -6   10    7      0.80      0.00
   -4   10    7     -1.27      0.00
   -2   10    7     -1.91      0.00
    0   10    7     -0.77      0.00
    2   10    7      0.02      0.00
    4   10    7     -0.13      0.00
    6   10    7     -1.75      0.00
    8   10    7      0.02      0.00
  -11   11    7      0.70      0.00
   -9   11    7      0.79      0.00
   -7   11    7     -0.17      0.00
   -5   11    7     -0.48      0.00
   -3   11    7      1.02      0.00
   -1   11    7      0.07      0.00
    1   11    7      0.06      0.00
    3   11    7      0.09      0.00
    5   11    7      0.45      0.00
    7   11    7      1.50      0.00
  -10   12    7     -0.35      0.00
   -8   12    7     -0.55      0.00
   -6   12    7      0.14      0.00
   -4   12    7      0.44      0.00
   -2   12    7      0.53      0.00
    0   12    7      1.09      0.00
    2   12    7      0.37      0.00
    4   12    7      0.33      0.00
   -5   13    7     -0.57      0.00
   -3   13    7     -0.40      0.00
   -1   13    7     -0.67      0.00
    1   13    7     -1.21      0.00
  -16    0    8      1.01      0.00
  -14    0    8     -0.83      0.00
  -12    0    8     -1.36      0.00
  -10    0    8     -2.01      0.00
   -8    0    8     -4.48      0.00
   -6    0    8     -0.31      0.00
   -4    0    8     -0.37      0.00
   -2    0    8     -0.02      0.00
    0    0    8      0.33      0.00
    2    0    8      0.12      0.00
    4    0    8      0.41      0.00
    6    0    8     -0.42      0.00
    8    0    8     -0.65      0.00
   10    0    8      1.04      0.00
  -17    1    8     -3.73      0.00
  -15    1    8      0.95      0.00
  -13    1    8      1.19      0.00
  -11    1    8      0.82      0.00
   -9    1    8      3.30      0.00
   -7    1    8      2.42      0.00
   -5    1    8     -1.32      0.00
   -3    1    8      0.51      0.00
   -1    1    8     -0.94      0.00
    1    1    8     -0.42      0.00
    3    1    8     -0.66      0.00
    5    1    8     -0.21      0.00
    7    1    8      0.03      0.00
    9    1    8      0.60      0.00
   11    1    8     -2.15      0.00
  -16    2    8     -0.13      0.00
  -14    2    8     -0.68      0.00
  -12    2    8     -0.63      0.00
  -10    2    8     -0.73      0.00
   -8    2    8     -2.13      0.00
   -6    2    8      0.86      0.00
   -4    2    8      1.49      0.00
   -2    2    8      0.79      0.00
    0    2    8      0.92      0.00
    2    2    8      1.13      0.00
    4    2    8      0.51      0.00
    6    2    8      0.35      0.00
    8    2    8     -0.21      0.00
   10    2    8      0.64      0.00
  -17    3    8     -1.74      0.00
  -15    3    8      0.92      0.00
  -13    3    8      0.07      0.00
  -11    3    8     -0.48      0.00
   -9    3    8      0.09      0.00
   -7    3    8      0.09      0.00
   -5    3    8     -2.62      0.00
   -3    3    8     -0.75      0.00
   -1    3    8     -0.63      0.00
    1    3    8     -1.08      0.00
    3    3    8     -0.02      0.00
    5    3    8     -0.02      0.00
    7    3    8     -0.13      0.00
    9    3    8      0.36      0.00
   11    3    8     -1.22      0.00
  -16    4    8     -0.48      0.00
  -14    4    8      0.32      0.00
  -12    4    8      0.23      0.00
  -10    4    8      0.69      0.00
   -8    4    8      0.49      0.00
   -6    4    8      1.11      0.00
   -4    4    8      1.45      0.00
   -2    4    8     -0.07      0.00
    0    4    8      0.10      0.00
    2    4    8      0.75      0.00
    4    4    8     -0.58      0.00
    6    4    8      0.21      0.00
    8    4    8     -0.31      0.00
   10    4    8     -0.14      0.00
  -15    5    8     -0.08      0.00
  -13    5    8     -0.23      0.00
  -11    5    8     -0.20      0.00
   -9    5    8     -0.13      0.00
   -7    5    8      0.28      0.00
   -5    5    8     -1.16      0.00
   -3    5    8      0.75      0.00
   -1    5    8      0.13      0.00
    1    5    8     -0.82      0.00
    3    5    8     -0.70      0.00
    5    5    8     -1.35      0.00
    7    5    8     -0.10      0.00
    9    5    8      0.69      0.00
  -14    6    8      1.21      0.00
  -12    6    8     -0.16      0.00
  -10    6    8     -0.24      0.00
   -8    6    8     -1.13      0.00
   -6    6    8     -0.50      0.00
   -4    6    8     -0.91      0.00
   -2    6    8     -0.63      0.00
    0    6    8      0.07      0.00
    2    6    8      1.44      0.00
    4    6    8      2.15      0.00
    6    6    8      1.43      0.00
    8    6    8     -0.36      0.00
  -13    7    8     -0.55      0.00
  -11    7    8     -0.31      0.00
   -9    7    8      0.84      0.00
   -7    7    8      1.61      0.00
   -5    7    8      0.75      0.00
   -3    7    8      1.75      0.00
   -1    7    8     -0.36      0.00
    1    7    8      0.20      0.00
    3    7    8     -1.24      0.00
    5    7    8     -1.77      0.00
    7    7    8      0.40      0.00
  -12    8    8      0.17      0.00
  -10    8    8      1.00      0.00
   -8    8    8     -1.06      0.00
   -6    8    8     -0.53      0.00
   -4    8    8     -1.13      0.00
   -2    8    8      0.53      0.00
    0    8    8      0.00      0.00
    2    8    8     -0.46      0.00
    4    8    8      0.92      0.00
    6    8    8     -0.53      0.00
  -11    9    8     -1.35      0.00
   -9    9    8     -0.91      0.00
   -7    9    8      0.37      0.00
   -5    9    8     -0.14      0.00
   -3    9    8     -0.60      0.00
   -1    9    8     -1.63      0.00
    1    9    8      0.31      0.00
    3    9    8     -0.49      0.00
    5    9    8     -0.22      0.00
  -10   10    8      1.92      0.00
   -8   10    8      0.08      0.00
   -6   10    8     -0.04      0.00
   -4   10    8      0.50      0.00
   -2   10    8      1.51      0.00
    0   10    8      0.76      0.00
    2   10    8      0.13      0.00
    4   10    8      1.15      0.00
   -7   11    8      0.57      0.00
   -5   11    8      0.35      0.00
   -3   11    8     -0.80      0.00
   -1   11    8     -0.22      0.00
    1   11    8      0.13      0.00
  -15    1    9      0.32      0.00
  -13    1    9     -0.42      0.00
  -11    1    9      0.38      0.00
   -9    1    9      0.87      0.00
   -7    1    9      1.25      0.00
   -5    1    9      0.98      0.00
   -3    1    9     -0.05      0.00
   -1    1    9     -0.04      0.00
    1    1    9     -0.19      0.00
    3    1    9      0.27      0.00
    5    1    9      0.27      0.00
    7    1    9      0.46      0.00
  -14    2    9     -0.75      0.00
  -12    2    9      0.61      0.00
  -10    2    9     -1.52      0.00
   -8    2    9     -0.15      0.00
   -6    2    9     -1.73      0.00
   -4    2    9     -0.10      0.00
   -2    2    9     -0.76      0.00
    0    2    9     -0.39      0.00
    2    2    9      0.00      0.00
    4    2    9      0.01      0.00
    6    2    9     -0.43      0.00
  -13    3    9     -0.43      0.00
  -11    3    9      0.50      0.00
   -9    3    9      0.05      0.00
   -7    3    9     -0.02      0.00
   -5    3    9      0.63      0.00
   -3    3    9      0.92      0.00
   -1    3    9      1.85      0.00
    1    3    9      0.67      0.00
    3    3    9     -0.42      0.00
    5    3    9     -0.54      0.00
    7    3    9      0.07      0.00
  -12    4    9      0.95      0.00
  -10    4    9     -0.53      0.00
   -8    4    9      1.25      0.00
   -6    4    9     -0.61      0.00
   -4    4    9     -0.56      0.00
   -2    4    9     -1.97      0.00
    0    4    9     -1.76      0.00
    2    4    9     -0.02      0.00
    4    4    9      0.82      0.00
    6    4    9      0.39      0.00
  -13    5    9     -1.05      0.00
  -11    5    9      0.10      0.00
   -9    5    9     -0.38      0.00
   -7    5    9     -0.68      0.00
   -5    5    9      0.77      0.00
   -3    5    9      0.66      0.00
   -1    5    9      0.83      0.00
    1    5    9      0.91      0.00
    3    5    9     -0.76      0.00
    5    5    9     -0.03      0.00
  -12    6    9     -0.45      0.00
  -10    6    9     -0.36      0.00
   -8    6    9      1.02      0.00
   -6    6    9      0.16      0.00
   -4    6    9     -0.38      0.00
   -2    6    9      0.81      0.00
    0    6    9     -0.14      0.00
    2    6    9      0.08      0.00
    4    6    9      0.27      0.00
   -9    7    9     -0.29      0.00
   -7    7    9     -1.37      0.00
   -5    7    9      1.08      0.00
   -3    7    9     -0.59      0.00
   -1    7    9     -0.90      0.00
    1    7    9      1.08      0.00
    3    7    9     -0.49      0.00
   -8    8    9      0.76      0.00
   -6    8    9     -0.49      0.00
   -4    8    9     -1.42      0.00
   -2    8    9      0.66      0.00
    0    8    9     -1.19      0.00
    2    8    9     -1.45      0.00
   -3    9    9     -0.25      0.00
  -10    0   10      0.17      0.00
   -8    0   10      1.11      0.00
   -6    0   10      0.10      0.00
   -4    0   10      0.50      0.00
   -2    0   10      1.98      0.00
   -9    1   10      0.24      0.00
   -7    1   10     -0.64      0.00
   -5    1   10     -0.25      0.00
   -3    1   10     -1.95      0.00
   -1    1   10     -0.21      0.00
   -8    2   10     -0.09      0.00
   -6    2   10      0.42      0.00
   -4    2   10      1.58      0.00
   -2    2   10      2.26      0.00
   -7    3   10     -0.65      0.00
   -5    3   10     -0.81      0.00
   -3    3   10     -1.90      0.00
   -6    4   10      0.31      0.00
   -4    4   10      0.15      0.00
   -2    4   10      0.47      0.00
   -5    5   10      0.90      0.00
    0    2    0     96.79      0.00
   23    3    0     -0.11      0.00
   22    6    0      0.23      0.00
    5    9    0     -4.50      0.00
   13   15    0     -1.44      0.00
   -1    1    1    -41.18      0.00
  -23    3    1      1.66      0.00
   21    7    1      0.79      0.00
   14   14    1     -1.24      0.00
  -13   15    1      2.24      0.00
   -2   18    1     -0.45      0.00
    0   18    1     -1.99      0.00
    2   18    1     -1.82      0.00
   22    0    2     -2.76      0.00
   22    2    2     -2.74      0.00
   21    5    2      0.68      0.00
   -1    9    2     -4.32      0.00
   19    9    2     -0.45      0.00
   18   10    2     -0.28      0.00
   17   11    2      0.23      0.00
   16   12    2      0.23      0.00
   15   13    2     -0.32      0.00
   12   14    2     -1.71      0.00
  -13   15    2      1.30      0.00
   21    1    3      0.46      0.00
  -23    3    3     -2.17      0.00
  -22    6    3     -0.63      0.00
   18    8    3      0.35      0.00
  -14   14    3     -0.31      0.00
   12   14    3      0.99      0.00
  -10   16    3     -2.46      0.00
   20    0    4     -0.32      0.00
  -23    1    4      2.94      0.00
   19    5    4     -1.41      0.00
  -21    7    4      0.07      0.00
  -15   13    4      0.14      0.00
   11   13    4      0.97      0.00
   10   14    4     -1.21      0.00
  -11   15    4      0.10      0.00
   -8   16    4     -0.29      0.00
   15    9    5     -0.69      0.00
  -18   10    5     -1.07      0.00
   14   10    5      1.22      0.00
   13   11    5     -1.27      0.00
  -12   14    5      0.25      0.00
    8   14    5      1.00      0.00
   -9   15    5     -1.17      0.00
    5   15    5     -1.10      0.00
   -2   16    5     -0.17      0.00
  -21    3    6     -0.69      0.00
   16    4    6     -0.04      0.00
  -19    7    6     -0.72      0.00
  -17    9    6     -1.41      0.00
    8   12    6      0.70      0.00
    7   13    6      0.49      0.00
    4   14    6     -0.01      0.00
  -15    9    7     -0.60      0.00
  -14   10    7      0.34      0.00
   -7   13    7      0.95      0.00
  -18    0    8      4.31      0.00
   12    0    8      1.28      0.00
  -18    2    8      2.95      0.00
  -16    6    8      0.21      0.00
  -15    7    8     -1.70      0.00
    9    7    8      0.45      0.00
  -14    8    8      1.21      0.00
    8    8    8     -0.48      0.00
    8    2    9      0.00      0.00
  -14    4    9     -0.05      0.00
  -11    7    9      1.02      0.00
   -7    9    9     -0.28      0.00
   -5    9    9      2.14      0.00
   -1    9    9      0.41      0.00
    0    0   10     -2.34      0.00
    2    0   10     -1.46      0.00
    1    1   10      2.77      0.00
    3    1   10      0.41      0.00
  -10    2   10     -1.09      0.00
    0    2   10     -2.54      0.00
    2    2   10     -1.24      0.00
   -9    3   10      0.82      0.00
   -1    3   10      0.40      0.00
    1    3   10      2.35      0.00
   -8    4   10      0.46      0.00
    0    4   10     -1.75      0.00
   -7    5   10     -0.25      0.00
   -3    5   10      0.46      0.00
   -1    5   10      0.41      0.00
    0    0    0      0.00      0.00
;
_shelx_fab_checksum              3041
loop_
_space_group_symop_operation_xyz
'x, y, z'
'-x, y, -z+1/2'
'x+1/2, y+1/2, z'
'-x+1/2, y+1/2, -z+1/2'
'-x, -y, -z'
'x, -y, z-1/2'
'-x+1/2, -y+1/2, -z'
'x+1/2, -y+1/2, z-1/2'
loop_
_atom_site_label
_atom_site_type_symbol
_atom_site_fract_x
_atom_site_fract_y
_atom_site_fract_z
_atom_site_U_iso_or_equiv
_atom_site_adp_type
_atom_site_occupancy
_atom_site_site_symmetry_order
_atom_site_calc_flag
_atom_site_refinement_flags_posn
_atom_site_refinement_flags_adp
_atom_site_refinement_flags_occupancy
_atom_site_disorder_assembly
_atom_site_disorder_group
La1 La 0.5000 0.46505(2) 0.2500 0.02644(13) Uani 1 2 d S T P . .
C1 C 0.6499(2) 0.6214(3) 0.6483(5) 0.0367(9) Uani 1 1 d . . . . .
C2 C 0.6209(2) 0.6318(3) 0.3555(5) 0.0358(9) Uani 1 1 d . . . . .
C3 C 0.6790(2) 0.6951(3) 0.3542(5) 0.0392(10) Uani 1 1 d . . . . .
C4 C 0.6925(3) 0.7307(4) 0.2114(5) 0.0489(12) Uani 1 1 d . . . . .
H4 H 0.6638 0.7137 0.1136 0.059 Uiso 1 1 calc R U . . .
C5 C 0.7482(3) 0.7914(4) 0.2111(5) 0.0499(13) Uani 1 1 d . . . . .
H5 H 0.7570 0.8157 0.1131 0.060 Uiso 1 1 calc R U . . .
C6 C 0.7907(2) 0.8164(3) 0.3530(5) 0.0394(9) Uani 1 1 d . . . . .
C7 C 0.7782(2) 0.7805(3) 0.4992(5) 0.0383(9) Uani 1 1 d . . . . .
N1 N 0.61282(17) 0.5968(3) 0.5012(4) 0.0345(7) Uani 1 1 d . . . . .
O1 O 0.63210(16) 0.5914(2) 0.7701(3) 0.0419(7) Uani 1 1 d . . . . .
O2 O 0.55906(16) 0.53678(18) 0.5014(4) 0.0329(6) Uani 1 1 d . . . . .
O3 O 0.57997(15) 0.6064(2) 0.2350(3) 0.0394(7) Uani 1 1 d . . . . .
O1W O 0.4775(2) 0.3182(3) 0.0810(4) 0.0576(9) Uani 1 1 d . . . . .
H1WA H 0.4415 0.3245 -0.0211 0.086 Uiso 1 1 d R U . . .
H1WB H 0.4542 0.2673 0.1332 0.086 Uiso 1 1 d R U . . .
O2W O 0.3953(4) 0.1693(5) 0.1492(11) 0.152(3) Uani 1 1 d . . . . .
H2WA H 0.3901 0.1490 0.2424 0.228 Uiso 1 1 d R U . . .
H2WB H 0.3689 0.1342 0.0817 0.228 Uiso 1 1 d R U . . .
loop_
_atom_site_aniso_label
_atom_site_aniso_U_11
_atom_site_aniso_U_22
_atom_site_aniso_U_33
_atom_site_aniso_U_23
_atom_site_aniso_U_13
_atom_site_aniso_U_12
La1 0.02650(18) 0.03356(19) 0.01926(17) 0.000 0.00393(11) 0.000
C1 0.036(2) 0.051(3) 0.0247(19) -0.0027(16) 0.0071(15) -0.0091(18)
C2 0.038(2) 0.047(2) 0.0231(18) -0.0004(16) 0.0066(15) -0.0073(18)
C3 0.038(2) 0.055(3) 0.0238(19) -0.0015(17) 0.0042(16) -0.0165(19)
C4 0.048(3) 0.074(3) 0.024(2) -0.003(2) 0.0025(17) -0.028(2)
C5 0.052(3) 0.076(3) 0.0215(18) -0.0020(19) 0.0058(17) -0.028(3)
C6 0.036(2) 0.054(3) 0.029(2) -0.0031(18) 0.0058(16) -0.015(2)
C7 0.037(2) 0.054(2) 0.0244(19) -0.0039(17) 0.0061(15) -0.0124(19)
N1 0.0323(16) 0.0464(19) 0.0249(15) -0.0011(14) 0.0055(12) -0.0123(15)
O1 0.0426(16) 0.062(2) 0.0216(13) 0.0006(13) 0.0063(11) -0.0161(15)
O2 0.0287(14) 0.0436(17) 0.0269(14) -0.0029(10) 0.0064(11) -0.0125(11)
O3 0.0422(15) 0.0533(17) 0.0214(13) -0.0024(12) 0.0022(11) -0.0150(15)
O1W 0.072(2) 0.056(2) 0.0436(18) -0.0049(16) 0.0041(16) -0.0093(19)
O2W 0.134(6) 0.110(5) 0.216(9) -0.014(6) 0.041(6) -0.023(5)
loop_
_atom_type_symbol
_atom_type_description
_atom_type_scat_dispersion_real
_atom_type_scat_dispersion_imag
_atom_type_scat_source
C C 0.0181 0.0091 'International Tables Vol C Tables 4.2.6.8 and 6.1.1.4'
H H 0.0000 0.0000 'International Tables Vol C Tables 4.2.6.8 and 6.1.1.4'
La La -1.4094 9.0376 'International Tables Vol C Tables 4.2.6.8 and 6.1.1.4'
N N 0.0311 0.0180 'International Tables Vol C Tables 4.2.6.8 and 6.1.1.4'
O O 0.0492 0.0322 'International Tables Vol C Tables 4.2.6.8 and 6.1.1.4'
Cl Cl 0.3639 0.7018 'International Tables Vol C Tables 4.2.6.8 and 6.1.1.4'
loop_
_geom_angle_atom_site_label_1
_geom_angle_atom_site_label_2
_geom_angle_atom_site_label_3
_geom_angle
_geom_angle_site_symmetry_1
_geom_angle_site_symmetry_3
_geom_angle_publ_flag
O2 La1 O2 129.32(13) . 2_655 ?
O2 La1 O2 120.92(11) . 6_565 ?
O2 La1 O2 59.68(11) 2_655 6_565 ?
O2 La1 O2 59.68(11) . 5_666 ?
O2 La1 O2 120.92(11) 2_655 5_666 ?
O2 La1 O2 178.79(12) 6_565 5_666 ?
O2 La1 O1W 82.69(10) . 2_655 ?
O2 La1 O1W 147.38(11) 2_655 2_655 ?
O2 La1 O1W 113.08(10) 6_565 2_655 ?
O2 La1 O1W 65.82(11) 5_666 2_655 ?
O2 La1 O1W 147.39(11) . . ?
O2 La1 O1W 82.69(10) 2_655 . ?
O2 La1 O1W 65.82(11) 6_565 . ?
O2 La1 O1W 113.08(10) 5_666 . ?
O1W La1 O1W 66.66(17) 2_655 . ?
O2 La1 O3 60.91(8) . . ?
O2 La1 O3 78.49(9) 2_655 . ?
O2 La1 O3 67.73(9) 6_565 . ?
O2 La1 O3 113.32(8) 5_666 . ?
O1W La1 O3 130.78(11) 2_655 . ?
O1W La1 O3 133.28(11) . . ?
O2 La1 O3 78.49(9) . 2_655 ?
O2 La1 O3 60.91(8) 2_655 2_655 ?
O2 La1 O3 113.32(8) 6_565 2_655 ?
O2 La1 O3 67.73(9) 5_666 2_655 ?
O1W La1 O3 133.28(11) 2_655 2_655 ?
O1W La1 O3 130.78(11) . 2_655 ?
O3 La1 O3 73.53(15) . 2_655 ?
O2 La1 O1 118.78(9) . 5_666 ?
O2 La1 O1 77.80(9) 2_655 5_666 ?
O2 La1 O1 119.85(9) 6_565 5_666 ?
O2 La1 O1 59.71(9) 5_666 5_666 ?
O1W La1 O1 80.70(12) 2_655 5_666 ?
O1W La1 O1 68.55(11) . 5_666 ?
O3 La1 O1 144.55(11) . 5_666 ?
O3 La1 O1 72.00(11) 2_655 5_666 ?
O2 La1 O1 77.80(9) . 6_565 ?
O2 La1 O1 118.78(9) 2_655 6_565 ?
O2 La1 O1 59.71(9) 6_565 6_565 ?
O2 La1 O1 119.85(9) 5_666 6_565 ?
O1W La1 O1 68.56(11) 2_655 6_565 ?
O1W La1 O1 80.70(12) . 6_565 ?
O3 La1 O1 72.00(11) . 6_565 ?
O3 La1 O1 144.55(11) 2_655 6_565 ?
O1 La1 O1 143.21(16) 5_666 6_565 ?
O1 C1 N1 119.7(4) . . ?
O1 C1 C6 124.2(4) . 7_666 ?
N1 C1 C6 116.1(3) . 7_666 ?
O3 C2 N1 118.5(4) . . ?
O3 C2 C3 124.5(4) . . ?
N1 C2 C3 116.9(4) . . ?
C4 C3 C7 120.4(4) . 7_666 ?
C4 C3 C2 120.6(4) . . ?
C7 C3 C2 119.1(4) 7_666 . ?
C3 C4 C5 120.3(4) . . ?
C3 C4 H4 119.9 . . ?
C5 C4 H4 119.9 . . ?
C6 C5 C4 120.5(4) . . ?
C6 C5 H5 119.8 . . ?
C4 C5 H5 119.8 . . ?
C5 C6 C7 120.2(4) . . ?
C5 C6 C1 120.2(4) . 7_666 ?
C7 C6 C1 119.6(4) . 7_666 ?
C6 C7 C7 119.8(5) . 7_666 ?
C6 C7 C3 121.2(4) . 7_666 ?
C7 C7 C3 118.9(5) 7_666 7_666 ?
O2 N1 C2 116.7(3) . . ?
O2 N1 C1 116.4(3) . . ?
C2 N1 C1 126.7(4) . . ?
C1 O1 La1 117.5(3) . 5_666 ?
N1 O2 La1 120.8(2) . . ?
N1 O2 La1 116.8(2) . 5_666 ?
La1 O2 La1 120.32(11) . 5_666 ?
C2 O3 La1 119.8(3) . . ?
La1 O1W H1WA 114.8 . . ?
La1 O1W H1WB 114.9 . . ?
H1WA O1W H1WB 99.0 . . ?
H2WA O2W H2WB 104.5 . . ?
loop_
_geom_bond_atom_site_label_1
_geom_bond_atom_site_label_2
_geom_bond_distance
_geom_bond_site_symmetry_2
_geom_bond_publ_flag
La1 O2 2.482(3) . ?
La1 O2 2.482(3) 2_655 ?
La1 O2 2.568(3) 6_565 ?
La1 O2 2.568(3) 5_666 ?
La1 O1W 2.602(4) 2_655 ?
La1 O1W 2.602(4) . ?
La1 O3 2.612(3) . ?
La1 O3 2.612(3) 2_655 ?
La1 O1 2.649(3) 5_666 ?
La1 O1 2.649(3) 6_565 ?
C1 O1 1.229(5) . ?
C1 N1 1.379(5) . ?
C1 C6 1.467(6) 7_666 ?
C2 O3 1.239(5) . ?
C2 N1 1.378(5) . ?
C2 C3 1.460(6) . ?
C3 C4 1.390(6) . ?
C3 C7 1.418(6) 7_666 ?
C4 C5 1.397(6) . ?
C4 H4 0.9500 . ?
C5 C6 1.387(6) . ?
C5 H5 0.9500 . ?
C6 C7 1.412(6) . ?
C6 C1 1.467(6) 7_666 ?
C7 C7 1.412(8) 7_666 ?
C7 C3 1.418(6) 7_666 ?
N1 O2 1.362(4) . ?
O1 La1 2.649(3) 5_666 ?
O2 La1 2.568(3) 5_666 ?
O1W H1WA 1.0174 . ?
O1W H1WB 1.0173 . ?
O2W H2WA 0.8701 . ?
O2W H2WB 0.8699 . ?
loop_
_geom_torsion_atom_site_label_1
_geom_torsion_atom_site_label_2
_geom_torsion_atom_site_label_3
_geom_torsion_atom_site_label_4
_geom_torsion
_geom_torsion_site_symmetry_1
_geom_torsion_site_symmetry_2
_geom_torsion_site_symmetry_3
_geom_torsion_site_symmetry_4
_geom_torsion_publ_flag
O3 C2 C3 C4 -0.8(8) . . . . ?
N1 C2 C3 C4 177.4(5) . . . . ?
O3 C2 C3 C7 179.5(4) . . . 7_666 ?
N1 C2 C3 C7 -2.3(7) . . . 7_666 ?
C7 C3 C4 C5 -0.4(8) 7_666 . . . ?
C2 C3 C4 C5 179.9(5) . . . . ?
C3 C4 C5 C6 0.3(9) . . . . ?
C4 C5 C6 C7 0.2(8) . . . . ?
C4 C5 C6 C1 178.6(5) . . . 7_666 ?
C5 C6 C7 C7 -0.5(9) . . . 7_666 ?
C1 C6 C7 C7 -178.9(5) 7_666 . . 7_666 ?
C5 C6 C7 C3 179.9(5) . . . 7_666 ?
C1 C6 C7 C3 1.5(7) 7_666 . . 7_666 ?
O3 C2 N1 O2 -0.8(6) . . . . ?
C3 C2 N1 O2 -179.2(4) . . . . ?
O3 C2 N1 C1 -175.2(4) . . . . ?
C3 C2 N1 C1 6.4(7) . . . . ?
O1 C1 N1 O2 -2.2(6) . . . . ?
C6 C1 N1 O2 177.9(4) 7_666 . . . ?
O1 C1 N1 C2 172.3(4) . . . . ?
C6 C1 N1 C2 -7.6(7) 7_666 . . . ?
N1 C1 O1 La1 -22.9(6) . . . 5_666 ?
C6 C1 O1 La1 157.0(4) 7_666 . . 5_666 ?
C2 N1 O2 La1 15.4(5) . . . . ?
C1 N1 O2 La1 -169.6(3) . . . . ?
C2 N1 O2 La1 -148.2(3) . . . 5_666 ?
C1 N1 O2 La1 26.8(4) . . . 5_666 ?
N1 C2 O3 La1 -13.3(5) . . . . ?
C3 C2 O3 La1 164.9(4) . . . . ?
