#------------------------------------------------------------------------------
#$Date: 2022-11-03 01:52:09 +0200 (Thu, 03 Nov 2022) $
#$Revision: 278919 $
#$URL: file:///home/coder/svn-repositories/cod/cif/7/71/16/7711685.cif $
#------------------------------------------------------------------------------
#
# This file is available in the Crystallography Open Database (COD),
# http://www.crystallography.net/
#
# All data on this site have been placed in the public domain by the
# contributors.
#
data_7711685
loop_
_publ_author_name
'Wang, Ting'
'Jiang, Zhi-Jie'
'Wang, Ying'
'Wei, Rong-Jia'
'Zeng, Heng'
'Lu, Weigang'
'Li, Dan'
_publ_section_title
;
 An ato-Topology Metal-Organic Framework with Large C2H2 Adsorption and
 C2H2/CO2 Separation Capacity
;
_journal_name_full               'Dalton Transactions'
_journal_paper_doi               10.1039/D2DT02968E
_journal_year                    2022
_chemical_formula_moiety         'C16 H10 Co N4 O4, 0.2[C4H9NO], 0.6[C2H6O]'
_chemical_formula_sum            'C18 H15.4 Co N4.2 O4.8'
_chemical_formula_weight         426.27
_space_group_crystal_system      trigonal
_space_group_IT_number           148
_space_group_name_Hall           '-R 3'
_space_group_name_H-M_alt        'R -3 :H'
_atom_sites_solution_hydrogens   geom
_atom_sites_solution_primary     iterative
_audit_creation_date             2022-10-31
_audit_creation_method
;
Olex2 1.3
(compiled 2020.11.12 svn.r5f609507 for OlexSys, GUI svn.r6408)
;
_audit_update_record
;
2022-10-31 deposited with the CCDC.	2022-11-02 downloaded from the CCDC.
;
_cell_angle_alpha                90
_cell_angle_beta                 90
_cell_angle_gamma                120
_cell_formula_units_Z            18
_cell_length_a                   41.862(3)
_cell_length_b                   41.862(3)
_cell_length_c                   9.5888(5)
_cell_measurement_reflns_used    2072
_cell_measurement_temperature    100.00(11)
_cell_measurement_theta_max      62.4020
_cell_measurement_theta_min      3.6630
_cell_volume                     14552.4(17)
_computing_cell_refinement       'CrysAlisPro 1.171.39.33c (Rigaku OD, 2017)'
_computing_data_collection       'CrysAlisPro 1.171.39.33c (Rigaku OD, 2017)'
_computing_data_reduction        'CrysAlisPro 1.171.39.33c (Rigaku OD, 2017)'
_computing_molecular_graphics    'Olex2 1.3 (Dolomanov et al., 2009)'
_computing_publication_material  'Olex2 1.3 (Dolomanov et al., 2009)'
_computing_structure_refinement  'SHELXL 2018/3 (Sheldrick, 2015)'
_computing_structure_solution    'olex2.solve 1.3 (Bourhis et al., 2015)'
_diffrn_ambient_temperature      100.0
_diffrn_measured_fraction_theta_full 0.960
_diffrn_measured_fraction_theta_max 0.960
_diffrn_measurement_details
;
List of Runs (angles in degrees, time in seconds):

  # Type    Start    End  Width  t~exp~   \w     \q     \k     \f   Frames
#--------------------------------------------------------------------------
  1  \w      1.00  26.00   0.50    5.79    --    0.00 -61.00  98.00   50
  2  \w    -85.00 -60.00   0.50    5.79    --    0.00 -61.00  98.00   50
  3  \w      9.00  35.00   0.50    5.79    --    0.00  82.00-150.00   52
  4  \w     52.00 123.00   0.50   23.18    --   75.70  38.00   0.00  142
  5  \w    131.00 158.00   0.50   23.18    --   75.70  38.00   0.00   54
  6  \w    100.00 161.00   0.50   23.18    --   75.70  82.00-180.00  122
  7  \w     87.00 127.00   0.50   23.18    --   75.70  82.00-120.00   80
  8  \w      2.00  89.00   0.50   23.18    --   75.70 -38.00 105.00  174
;
_diffrn_measurement_device       'four-circle diffractometer'
_diffrn_measurement_device_type  'XtaLAB AFC12 (RINC): Kappa single'
_diffrn_measurement_method       '\w scans'
_diffrn_radiation_type           CuK\a
_diffrn_radiation_wavelength     1.54184
_diffrn_reflns_av_R_equivalents  0.0950
_diffrn_reflns_av_unetI/netI     0.1152
_diffrn_reflns_Laue_measured_fraction_full 0.960
_diffrn_reflns_Laue_measured_fraction_max 0.960
_diffrn_reflns_limit_h_max       39
_diffrn_reflns_limit_h_min       -47
_diffrn_reflns_limit_k_max       48
_diffrn_reflns_limit_k_min       -38
_diffrn_reflns_limit_l_max       9
_diffrn_reflns_limit_l_min       -10
_diffrn_reflns_number            12955
_diffrn_reflns_point_group_measured_fraction_full 0.960
_diffrn_reflns_point_group_measured_fraction_max 0.960
_diffrn_reflns_theta_full        63.249
_diffrn_reflns_theta_max         63.249
_diffrn_reflns_theta_min         3.658
_exptl_absorpt_coefficient_mu    4.356
_exptl_absorpt_correction_T_max  1.00000
_exptl_absorpt_correction_T_min  0.18826
_exptl_absorpt_correction_type   multi-scan
_exptl_absorpt_process_details
;
CrysAlisPro 1.171.39.33c (Rigaku Oxford Diffraction, 2017)
Empirical absorption correction using spherical harmonics,
 implemented in SCALE3 ABSPACK scaling algorithm.
;
_exptl_crystal_colour            violet
_exptl_crystal_colour_primary    violet
_exptl_crystal_density_diffrn    0.876
_exptl_crystal_description       block
_exptl_crystal_F_000             3928
_exptl_crystal_size_max          0.1
_exptl_crystal_size_mid          0.05
_exptl_crystal_size_min          0.05
_refine_diff_density_max         0.452
_refine_diff_density_min         -0.594
_refine_diff_density_rms         0.055
_refine_ls_extinction_method     none
_refine_ls_goodness_of_fit_ref   0.903
_refine_ls_hydrogen_treatment    constr
_refine_ls_matrix_type           full
_refine_ls_number_parameters     227
_refine_ls_number_reflns         5054
_refine_ls_number_restraints     0
_refine_ls_restrained_S_all      0.903
_refine_ls_R_factor_all          0.0924
_refine_ls_R_factor_gt           0.0597
_refine_ls_shift/su_max          0.000
_refine_ls_shift/su_mean         0.000
_refine_ls_structure_factor_coef Fsqd
_refine_ls_weighting_details
'w=1/[\s^2^(Fo^2^)+(0.0852P)^2^] where P=(Fo^2^+2Fc^2^)/3'
_refine_ls_weighting_scheme      calc
_refine_ls_wR_factor_gt          0.1520
_refine_ls_wR_factor_ref         0.1682
_reflns_Friedel_coverage         0.000
_reflns_number_gt                2984
_reflns_number_total             5054
_reflns_threshold_expression     'I > 2\s(I)'
_cod_data_source_file            d2dt02968e2.cif
_cod_data_source_block           desolvated_jnu-7_100k
_cod_original_cell_volume        14553(2)
_cod_original_sg_symbol_H-M      'R -3'
_cod_original_formula_sum        'C18 H15.40 Co N4.20 O4.80'
_cod_database_code               7711685
_shelx_shelxl_version_number     2018/3
_shelx_space_group_comment
;
The symmetry employed for this shelxl refinement is uniquely defined
by the following loop, which should always be used as a source of
symmetry information in preference to the above space-group names.
They are only intended as comments.
;
_shelx_estimated_absorpt_t_max   0.812
_shelx_estimated_absorpt_t_min   0.670
_olex2_refinement_description
;
1. Fixed Uiso
 At 1.2 times of:
  All C(H) groups
 At 1.5 times of:
  All C(H,H,H) groups
2.a Aromatic/amide H refined with riding coordinates:
 C2(H2), C7(H7), C8(H8), C12(H12), C13(H13), C15(H15), C16(H16)
2.b Idealised Me refined as rotating group:
 C14(H14A,H14B,H14C)
;
_smtbx_masks_special_details
;
A solvent mask was calculated and 353 electrons were 
found in a volume of 9168\%A^3^ in 1 void per unit cell. 
This is consistent with the presence of 
0.2[C4H9NO], 0.6[C2H6O] per Asymmetric Unit 
which account for 454 electrons 
per unit cell.
;
_shelx_res_file
;
TITL de-coha3-a_a.res in R-3
    desolvated_jnu-7_100k.res
    created by SHELXL-2018/3 at 11:29:08 on 31-Oct-2022
REM Old TITL de-coha3-a_a.res in R-3
REM SHELXT solution in R-3
REM R1 0.142, Rweak 0.017, Alpha 0.040, Orientation as input
REM Formula found by SHELXT: C16 N6 O2 Co
CELL 1.54184 41.862498 41.862498 9.588788 90 90 120
ZERR 18 0.002701 0.002701 0.000546 0 0 0
LATT 3
SYMM -Y,+X-Y,+Z
SYMM +Y-X,-X,+Z
SFAC C Co H N O
UNIT 324 18 277.2 75.6 86.4

L.S. 10
PLAN  29
SIZE 0.1 0.05 0.05
TEMP -173.15
CONF
BOND $H
list 4
MORE -1
ABIN
fmap 2
acta
REM <olex2.extras>
REM <HklSrc "%.\\Desolvated_JNU-7_100K.hkl">
REM </olex2.extras>

WGHT    0.085200
FVAR       0.23494
CO1   2    0.477514    0.378123    0.189860    11.00000    0.04331    0.04268 =
         0.04388    0.00012    0.00121    0.02031
O1    5    0.463001    0.351788    0.367705    11.00000    0.05276    0.03755 =
         0.05563    0.00620    0.00225    0.02181
O2    5    0.420056    0.180757    0.679685    11.00000    0.05699    0.04070 =
         0.05927    0.00414    0.00056    0.02406
O3    5    0.448557    0.196135    0.474921    11.00000    0.05518    0.04916 =
         0.05625   -0.00424    0.00310    0.03050
N1    4    0.435993    0.304097    0.858717    11.00000    0.04638    0.04215 =
         0.03995   -0.00433    0.00109    0.02217
O4    5    0.484227    0.319073    0.261808    11.00000    0.06892    0.06836 =
         0.05185    0.00981    0.01293    0.04213
N2    4    0.452330    0.342264    1.034232    11.00000    0.04327    0.04197 =
         0.04614    0.00144    0.00220    0.01833
N3    4    0.413990    0.321594    1.034418    11.00000    0.04307    0.05147 =
         0.04371   -0.00401    0.00140    0.02088
N4    4    0.290172    0.221417    0.871469    11.00000    0.05119    0.05156 =
         0.04050   -0.00204    0.00240    0.02471
C1    1    0.440024    0.289163    0.728916    11.00000    0.03669    0.03851 =
         0.04254    0.00004   -0.00121    0.01867
C2    1    0.450286    0.311710    0.612696    11.00000    0.04586    0.04089 =
         0.04886    0.00179    0.00160    0.02328
AFIX  43
H2    3    0.452376    0.335338    0.618468    11.00000   -1.20000
AFIX   0
C3    1    0.464491    0.331134    0.929708    11.00000    0.04312    0.04370 =
         0.04309   -0.00188   -0.00164    0.02003
C4    1    0.457516    0.299913    0.487990    11.00000    0.04357    0.04194 =
         0.04549    0.00181    0.00256    0.02284
C5    1    0.442133    0.242172    0.596145    11.00000    0.03900    0.03487 =
         0.04655   -0.00133    0.00092    0.01714
C6    1    0.404909    0.298690    0.928186    11.00000    0.05924    0.04865 =
         0.03079    0.00136   -0.00110    0.02714
C7    1    0.435539    0.254145    0.721706    11.00000    0.04547    0.04066 =
         0.04338    0.00319    0.00219    0.02114
AFIX  43
H7    3    0.428070    0.238604    0.801465    11.00000   -1.20000
AFIX   0
C8    1    0.453950    0.265263    0.480887    11.00000    0.03826    0.04519 =
         0.04645   -0.00117    0.00205    0.02307
AFIX  43
H8    3    0.459629    0.257249    0.396569    11.00000   -1.20000
AFIX   0
C9    1    0.469423    0.324819    0.361448    11.00000    0.04285    0.05076 =
         0.04452    0.00388    0.00013    0.02451
C10   1    0.436220    0.203214    0.584689    11.00000    0.04514    0.04397 =
         0.04955    0.00085   -0.00902    0.02644
C11   1    0.365909    0.271217    0.900360    11.00000    0.04426    0.04696 =
         0.04109   -0.00637    0.00084    0.01844
C12   1    0.352130    0.250718    0.784596    11.00000    0.04644    0.07216 =
         0.05648   -0.01393    0.00600    0.02063
AFIX  43
H12   3    0.368134    0.253155    0.710007    11.00000   -1.20000
AFIX   0
C13   1    0.314207    0.225757    0.773641    11.00000    0.05583    0.05842 =
         0.05593   -0.02061   -0.00553    0.02124
AFIX  43
H13   3    0.305339    0.211204    0.691544    11.00000   -1.20000
AFIX   0
C14   1    0.504374    0.345806    0.896823    11.00000    0.04645    0.06582 =
         0.07021   -0.01232    0.00578    0.02554
AFIX 137
H14A  3    0.507689    0.325972    0.858284    11.00000   -1.50000
H14B  3    0.519005    0.355277    0.982244    11.00000   -1.50000
H14C  3    0.512550    0.365777    0.828403    11.00000   -1.50000
AFIX   0
C15   1    0.341284    0.266653    1.004241    11.00000    0.04459    0.09820 =
         0.08143   -0.05075   -0.01129    0.01301
AFIX  43
H15   3    0.349719    0.280504    1.088085    11.00000   -1.20000
AFIX   0
C16   1    0.304333    0.241865    0.985740    11.00000    0.05376    0.10004 =
         0.07459   -0.03771    0.00469    0.01886
AFIX  43
H16   3    0.287892    0.239162    1.059029    11.00000   -1.20000
AFIX   0
HKLF 4




REM  de-coha3-a_a.res in R-3
REM wR2 = 0.1682, GooF = S = 0.903, Restrained GooF = 0.903 for all data
REM R1 = 0.0597 for 2984 Fo > 4sig(Fo) and 0.0924 for all 5054 data
REM 227 parameters refined using 0 restraints

END

WGHT      0.0852      0.0000

REM Highest difference peak  0.452,  deepest hole -0.594,  1-sigma level  0.055
Q1    1   0.4637  0.3793  0.2676  11.00000  0.05    0.45
Q2    1   0.4760  0.3599  0.2742  11.00000  0.05    0.42
Q3    1   0.4985  0.3891  0.2807  11.00000  0.05    0.39
Q4    1   0.4589  0.3694  0.1002  11.00000  0.05    0.39
Q5    1   0.4958  0.4006  0.0863  11.00000  0.05    0.38
Q6    1   0.4869  0.3647  0.0870  11.00000  0.05    0.35
Q7    1   0.4799  0.3629  0.4199  11.00000  0.05    0.28
Q8    1   0.4367  0.3189  0.8152  11.00000  0.05    0.27
Q9    1   0.4287  0.2937  0.8004  11.00000  0.05    0.25
Q10   1   0.4563  0.3050  0.1711  11.00000  0.05    0.23
Q11   1   0.5153  0.3375  0.7997  11.00000  0.05    0.21
Q12   1   0.4612  0.3342  0.4499  11.00000  0.05    0.21
Q13   1   0.4720  0.3283  0.1391  11.00000  0.05    0.21
Q14   1   0.4269  0.3273  0.2900  11.00000  0.05    0.21
Q15   1   0.4493  0.3501  0.3808  11.00000  0.05    0.20
Q16   1   0.4292  0.2478  0.6576  11.00000  0.05    0.20
Q17   1   0.4418  0.2260  0.6074  11.00000  0.05    0.19
Q18   1   0.4006  0.1836  0.4832  11.00000  0.05    0.19
Q19   1   0.4615  0.3093  0.5758  11.00000  0.05    0.19
Q20   1   0.4421  0.1764  0.7807  11.00000  0.05    0.18
Q21   1   0.4580  0.2818  0.5825  11.00000  0.05    0.18
Q22   1   0.3597  0.2663  1.1211  11.00000  0.05    0.18
Q23   1   0.4513  0.2455  0.6499  11.00000  0.05    0.18
Q24   1   0.4329  0.2666  0.8168  11.00000  0.05    0.18
Q25   1   0.4440  0.3018  0.5177  11.00000  0.05    0.18
Q26   1   0.3511  0.3006  1.0652  11.00000  0.05    0.17
Q27   1   0.4514  0.3138  0.8559  11.00000  0.05    0.17
Q28   1   0.4698  0.3415  0.8528  11.00000  0.05    0.17
Q29   1   0.4384  0.3428  0.2571  11.00000  0.05    0.17
;
_shelx_res_checksum              72088
_shelx_hkl_file
;
   0   0   3 339.607 38.0567   5
   0   0   3 402.368 51.7175   3
   0   0   6 299.831 38.6988   5
   1   0  -8 204.211 36.4616   6
   0  -1  -8 122.172 36.2720   6
  -1   1  -8 144.051 34.8010   6
   1  -1   5 160.363 25.8473   5
  -1   0   5 120.679 25.6283   5
   1  -1   5 194.526 53.0916   3
   0   1   5 155.691 51.7807   3
  -1   0   5 171.480 54.1910   3
   0  -1   4 1161.84 114.544   3
  -1   1   4 1113.24 103.381   5
   1   0   4 992.893 112.604   3
   0  -1   4 986.151 103.119   5
   1  -1  -7 1315.34 126.542   6
   0   1  -7 1314.09 125.892   6
  -1   0  -7 1153.03 125.804   6
   0   1 -10 205.980 55.5406   7
  -1   2  -6 644.215 65.1211   6
  -2   1   6 575.663 64.4704   5
   1  -2   3 498.910 55.5072   5
  -2   1   3 456.771 54.8875   5
  -2   1   3 648.959 56.9388   8
   1   1   3 619.255 57.5908   8
   2  -1  -3 702.484 64.7957   2
   1   1   3 569.745 65.3065   3
   2  -1   3 169.572 40.0474   3
  -1  -1   3 160.255 21.3138   5
   2  -1   3 119.066 26.0861   8
  -2   1  -3 176.499 36.0751   2
  -1  -1   3 137.706 25.0025   8
  -1  -1   6 1072.77 106.985   5
   1   1  -6 1068.54 107.185   6
  -2   2 -10 64.2032 50.8458   7
   2   0 -10 46.7195 49.9076   7
  -2   2  -7 968.389 95.5331   6
   2   0  -7 886.973 95.6516   6
  -2   0   4-4.68081 24.1460   8
   2  -2   4 9.70647 44.1118   3
  -2   0   4 0.82181 17.6028   5
   0   2   4 11.5935 43.0145   3
   2  -2   4-5.77342 18.7619   5
   2   0  -4-13.2277 36.2601   2
  -2   2  -4 35.5228 37.0247   2
  -2   2  -1 10422.7 1132.79   2
   2   0  -1 13263.3 1132.79   2
   2  -2   1 12018.3 1132.82   2
   2   0   2 1574.88 154.808   3
   0  -2   5 1014.78 98.1129   5
  -2   2   5 842.004 97.9511   5
   2   0   5 1203.89 111.441   3
   2  -2  -5 1045.89 113.104   2
  -2   0  -5 1055.44 113.341   2
   0  -2   5 1186.52 113.828   3
   2  -2  -8 303.578 44.7946   6
   0   2  -8 284.959 42.8422   6
   3  -2 -10 49.3488 46.7522   7
  -1   3 -10 23.2608 49.4757   7
   3  -2  -7 437.494 54.5346   6
  -3   2   7 402.284 51.6887   5
  -2  -1  -7 437.064 53.4642   6
  -1   3  -7 485.479 53.2289   6
  -3   2   4 3767.53 337.397   5
   1  -3   4 3592.78 337.335   5
  -2  -1  -4 3716.31 345.002   2
   3  -2  -4 4387.01 345.449   2
  -3   2   4 3254.14 337.818   8
   2   1   4 3169.79 337.994   8
   2   1   4 3409.53 341.788   3
  -2  -1  -1 45508.5 4326.42   3
   2   1  -2 3273.07 273.940   2
  -3   2  -2 2441.32 273.524   2
  -2  -1   5 2372.86 203.451   3
  -1   3   5 2151.98 201.048   3
   2   1  -5 2130.32 201.102   2
  -3   2  -5 1841.25 202.359   2
  -2  -1   5 1815.20 191.274   5
   3  -2   5 2106.30 199.998   3
   1  -3  -8 53.3506 32.6970   6
   2   1  -8 50.5756 32.1763   6
  -1  -2  -8 62.9874 31.3068   6
   3  -1  -8 21.3639 34.2148   6
   1   2   5 150.675 36.7258   8
  -3   1   5 203.295 27.4099   5
   3  -1  -5 181.978 48.7998   2
   2  -3   5 225.533 56.4635   3
  -1  -2  -5 173.070 51.8210   2
  -2   3  -5 167.015 26.5102   6
   1   2   5 172.091 54.8474   3
   3  -1  -2 109.588 25.1798   2
   1   2   2 99.7084 35.1475   3
   3  -1   1 973.881 95.0367   3
  -3   1  -4 336.800 52.2875   2
   3  -1   4 336.230 54.3914   3
  -1  -2   4 274.867 34.7104   5
   2  -3  -4 317.061 50.4441   2
   1   2  -4 302.881 47.3826   2
  -3   1  -7 426.312 52.2936   6
   1   2  -7 455.398 53.5610   6
   1   2 -10 122.842 51.4572   7
  -3   3  -6 573.214 61.2250   6
   3   0  -6 590.658 62.4131   6
  -3   0   6 547.460 60.7478   5
  -3   0   3 1494.97 127.561   8
   0   3   3 1425.38 127.664   5
   0   3   3 1059.53 127.737   8
   3  -3   3 1173.08 127.139   5
  -3   0   3 1304.45 126.918   5
   3   0  -3 1662.70 133.761   2
  -3   3  -3 1442.00 134.336   2
  -3   3   0 7151.67 680.672   1
   3   0   3 46.6477 21.6312   8
  -3   0  -3 50.2841 31.7853   2
   0  -3   3 41.7825 16.2998   5
  -3   3   3 30.0518 19.3100   8
   3   0   3 55.4311 36.9405   3
  -3   3   6 272.444 39.1403   5
   0   3  -6 390.728 41.2572   6
   3  -3  -9 143.852 34.6784   6
   4  -3  -8 671.380 75.7873   6
  -4   3   5 792.068 90.5247   8
   4  -3  -5 1095.82 105.309   2
   3   1   5 925.846 101.851   3
  -3  -1  -5 929.639 104.799   2
  -1   4  -5 827.214 87.4919   6
   1  -4   5 1086.86 104.534   3
  -4   3   5 887.102 87.8437   5
  -4   3   2 952.810 99.9462   3
   3   1   2 983.386 101.066   3
   4  -3   1 1079.35 125.060   2
  -3  -1   1 1621.86 126.303   2
  -1   4   4 13.9916 19.3938   5
  -4   3  -4 20.5718 37.5805   2
   4  -3   4 9.33044 43.9192   3
   3   1  -4 28.5002 33.1144   2
  -3  -1   4 7.04731 17.0456   5
   3   1  -7 40.7074 30.4351   6
   3   1 -10 34.3096 45.5547   7
  -4   3 -10 106.721 51.7933   7
   4  -2  -9 153.594 34.9015   6
  -2   4  -6 710.846 71.6708   6
  -4   2   6 659.689 71.3166   5
   4  -2  -3 2065.87 167.014   2
  -4   2   3 1766.14 161.088   8
   2  -4   3 1476.39 160.595   5
   2   2   3 1606.54 166.015   3
   2   2   3 1640.78 161.659   8
   2   2   3 1756.69 161.232   5
   2   2   0 12624.9 1201.15   1
  -4   2  -3 1480.33 153.972   2
  -2  -2   3 1544.26 148.116   5
   4  -2   3 1383.72 152.485   3
   2   2  -3 1739.84 153.495   2
   2   2  -6 908.261 83.9490   6
  -2  -2   6 767.996 82.6797   5
  -4   2  -6 780.153 82.9497   6
   4  -1 -10-13.7019 44.7959   7
  -3   4 -10 41.2693 49.4067   7
  -4   1   7 38.3276 25.4451   5
  -3   4  -7 113.320 28.7050   6
   4  -1  -7 53.2658 31.9128   6
  -4   1   4 77.6342 24.1410   8
  -3   4  -4 63.1105 17.9330   6
   1   3   4 86.7722 28.5874   8
   1   3   4 79.3626 21.1761   5
  -3   4  -4 71.3216 33.4658   2
  -4   1   4 29.7724 17.5199   5
   4  -1  -4 74.1601 36.2903   2
   1   3   4 91.8431 46.6440   3
   4  -1  -1 23443.9 2229.39   2
  -4   1  -2 482.629 59.9363   2
   4  -1   2 479.771 61.9109   3
  -4   1  -5 116.441 49.8347   2
  -1  -3   5 126.689 23.6029   5
  -1  -3   5 109.900 56.5654   3
   3  -4  -5 86.6916 45.7545   2
   4  -1   5 111.014 50.0458   3
   1   3  -5 136.978 23.9559   6
   3  -4  -8 20.2711 34.6965   6
   1   3  -8 5.79634 29.7037   6
   4   0  -8 111.275 35.8634   6
   0  -4  -8 145.864 36.2366   6
   4   0  -5 469.687 64.6896   2
   0   4   5 463.330 55.9868   8
   4  -4   5 522.608 70.6592   3
   0   4   5 495.527 51.1813   5
  -4   0   5 457.331 50.1640   5
  -4   4  -5 441.335 50.0816   6
   0   4   5 489.484 72.1538   3
  -4   4  -2 1043.30 118.213   2
   4  -4   2 1216.15 118.828   2
   4   0  -2 1336.14 118.786   2
  -4   4   1 2466.84 246.490   3
  -4   0  -1 2668.32 246.466   3
   0  -4   4 13.6622 16.6090   5
  -4   0  -4 44.3868 39.8434   2
  -4   4   4 39.4861 24.1311   8
   0   4  -4 33.4873 17.8093   6
   4   0   4 71.3390 45.2723   3
   4  -4  -4 36.7308 36.0544   2
   0   4  -7 1391.58 134.736   6
  -4   0  -7 1513.01 135.176   6
  -4   4   7 1186.07 134.188   5
  -1   5  -9 58.5541 59.2264   7
   5  -4  -9 67.2135 33.5652   6
  -1   5  -6 996.782 90.4255   6
  -5   4   6 790.851 89.9169   5
   4   1   3 282.364 30.7151   5
   1  -5   3 227.682 29.2760   5
  -5   4   3 251.243 48.0074   3
  -5   4   3 292.472 31.7684   8
   4   1   3 246.054 48.4853   3
   4   1   3 228.353 33.5529   8
   4   1   0 27876.9 2519.98   1
  -5   4   0 25317.7 2519.82   1
  -5   4  -3 487.429 62.3609   2
   4   1  -3 676.759 59.7306   2
  -1   5   3 527.906 54.5970   8
  -4  -1   3 496.211 51.3511   5
  -1   5   3 470.700 52.8706   5
  -4  -1   6 13.4017 22.2012   5
   4   1  -6 34.3652 26.4699   6
  -5   4  -6 14.1735 23.6552   6
  -1   5   6 14.6249 23.4924   5
  -1   5   6 15.8207 37.9148   8
   4   1  -9 1231.74 113.693   7
   4   1  -9 874.352 98.1434   6
  -2   5 -10 59.7521 46.9771   7
   5  -3 -10 46.1742 45.6936   7
   5  -3  -7 111.640 35.8470   6
  -5   3   7 109.874 27.4370   5
  -2   5  -7 149.279 30.7741   6
  -2   5  -4 78.1827 19.4311   6
  -3  -2  -4 111.687 39.5441   2
   3   2   4 74.3355 28.8401   8
   3   2   4 100.783 22.8696   5
  -5   3   4 85.4283 18.9671   5
   5  -3  -4 114.840 37.9562   2
  -5   3   4 57.4586 48.5638   3
   3   2   4 142.116 47.3119   3
  -5   3   4 90.0090 24.9196   8
   5  -3   2 2773.20 298.796   3
  -5   3  -2 2930.81 300.318   2
   5  -3   5 1064.66 105.872   3
  -3  -2   5 974.232 92.3022   5
  -5   3  -5 936.033 105.861   2
   3   2  -5 845.115 91.9496   6
   3   2  -8 13.9864 31.6384   6
   2  -5  -8 32.1560 33.0453   6
  -2  -3  -8 900.207 100.137   6
   5  -2  -8 1074.46 103.289   6
  -5   2   5 297.289 39.3036   5
   5  -2  -5 372.389 57.8534   2
  -2  -3  -5 377.521 61.9232   2
   2   3   5 369.557 41.6544   5
   3  -5   5 402.925 63.5593   3
  -3   5  -5 332.572 39.2459   6
   2   3   5 359.342 46.9669   8
   3  -5   2 11893.7 1124.27   2
   5  -2  -2 11840.0 1123.21   2
  -2  -3  -2 11627.2 1123.92   3
   3  -5  -1 686.251 69.6146   3
   5  -2   1 709.511 64.4157   3
  -5   2  -1 542.708 62.8996   2
   5  -2   4 1053.12 107.601   3
  -5   2  -4 1076.37 110.289   2
   2   3  -4 891.408 98.0564   6
  -2  -3   4 1084.99 98.1793   5
   2   3  -7 53.8886 28.9927   6
   2   3 -10 290.649 54.7839   7
   5  -1  -9 34.3078 30.8599   6
  -4   5  -6 1059.52 99.9068   6
   5  -1  -6 1112.25 101.625   6
   1   4   6 931.738 100.431   5
  -5   1   6 905.239 99.4613   5
   1   4   3 1928.61 183.706   5
   1   4   3 1817.72 184.122   8
   5  -1  -3 2088.53 187.712   2
  -5   1   3 1935.08 183.322   8
   1   4   3 1767.61 188.871   3
   1   4   0 42502.4 4008.72   1
  -4   5   0 41890.9 4008.21   1
  -1  -4   3 406.561 40.0547   5
   5  -1   3 369.117 52.2574   3
  -5   1  -3 338.751 51.4532   2
  -4   5   3 386.190 54.5729   3
   1   4  -3 347.260 40.0142   6
  -4   5   3 402.458 42.4622   8
   1   4  -6 1530.74 150.037   6
   1   4  -9 59.8223 57.7704   7
   4  -5  -9 9.82728 32.8986   6
   5   0 -10 40.6559 41.9161   7
  -5   5 -10 5.23449 48.7838   7
   5   0  -7 981.326 99.2397   6
  -5   0   7 933.434 97.4318   5
   0   5   4 643.795 59.2573   5
  -5   0   4 513.787 57.7223   5
   0   5   4 547.241 61.2668   8
  -5   5  -4 531.273 57.0424   6
   5  -5   4 556.635 73.0185   3
   5   0  -4 727.435 68.4608   2
  -5   0   1 719.940 73.0070   2
  -5   5   2 86.8978 36.5960   3
  -5   5   5 569.630 64.0483   8
   5   0   5 661.997 78.2643   3
  -5   5   5 596.898 80.9421   3
   5  -5  -5 630.162 78.6341   2
   0   5  -5 527.083 59.3836   6
  -5   0  -5 641.722 80.4697   2
   5  -5  -8 47.9765 36.6446   6
   0   5  -8 32.2468 30.0423   6
  -1   6 -10 168.143 49.2707   7
   6  -5 -10 112.469 45.7851   7
  -1   6  -7 164.809 31.0210   6
  -6   5   7 101.360 29.0151   5
   5   1   4 86.3809 47.4279   3
  -6   5   4 53.5109 48.6101   3
  -6   5   4 47.3976 23.4633   8
  -1   6  -4 43.4897 19.4772   6
   5   1   4 53.7264 28.3250   8
   6  -5  -4 87.7959 37.1287   2
  -5  -1  -4 73.3510 42.3514   2
  -6   5   1 4973.80 474.726   3
   6  -5   2 47.5796 22.8275   2
   5   1  -5 1914.80 189.732   6
   6  -5   5 2249.22 198.607   3
  -6   5  -5 2009.96 189.167   6
  -5  -1   5 2032.75 189.582   5
  -1   6   5 1769.77 189.998   5
  -1   6   5 1972.17 191.854   8
   5   1  -8 122.546 35.9899   6
   6  -4  -8 439.381 59.5967   6
  -6   4   5 1802.93 183.536   8
  -2   6  -5 1843.44 181.882   6
  -4  -2  -5 1768.05 194.935   2
   6  -4  -5 2149.12 195.804   2
  -6   4   5 2142.18 194.623   3
  -6   4   5 1902.09 182.424   5
  -6   4   2 5430.88 559.220   3
  -4  -2  -2 6457.79 560.646   3
  -4  -2   1 11283.0 870.185   2
   6  -4   1 7833.56 869.197   2
  -6   4  -4 2078.25 221.595   2
   6  -4   4 2255.93 219.127   3
  -2   6   4 2561.76 214.617   5
   4   2  -4 2136.49 213.584   6
  -4  -2   4 2101.11 213.472   5
   4   2  -7 66.4035 31.8194   6
  -6   4 -10 69.0570 49.8138   7
   4   2 -10 32.7331 42.1826   7
   6  -3  -9 10.2401 32.2934   6
  -3   6  -6 1499.06 149.973   6
  -6   3   6 1572.72 150.202   5
  -6   3   3 144.894 24.4533   4
   3  -6   3 181.071 36.5403   2
   3   3   3 184.919 28.1286   8
   3   3   3 196.715 25.3387   5
   6  -3  -3 210.437 37.2849   2
  -6   3   3 185.165 24.9423   8
  -3   6   0 3450.39 364.164   1
   3   3   0 4123.41 363.940   1
  -3  -3   3 1179.05 106.324   5
  -6   3  -3 981.678 113.738   2
   3   3  -3 1070.83 106.396   6
   6  -3   3 962.183 112.022   3
  -3  -3   6 1338.81 127.849   5
   3   3  -6 1250.02 128.275   6
   3  -6  -9 18.9711 31.4938   6
   3   3  -9 23.4099 55.0534   7
  -4   6 -10 511.030 71.8099   7
   6  -2 -10 471.672 65.1231   7
   6  -2  -7 507.448 59.0143   6
  -6   2   7 441.464 53.9606   5
  -6   2   4 1938.69 177.068   3
   6  -2  -4 2020.68 174.770   2
  -4   6  -4 1602.21 165.821   6
   2   4   4 1617.22 167.549   8
   2   4   4 1759.53 167.065   5
  -6   2   4 1803.39 166.769   8
   6  -2  -1 1096.10 106.352   2
  -2  -4   2 83.4364 32.2321   2
   6  -2   2 88.3289 34.3270   3
  -6   2  -2 78.6735 28.9552   2
  -4   6   2 58.1559 40.9077   3
   2   4  -5 543.337 64.3597   6
   6  -2   5 646.494 80.7023   3
  -2  -4   5 692.297 64.9832   5
  -6   2  -5 778.710 87.4744   2
   4  -6  -5 633.956 82.4288   2
   2   4  -8 470.402 58.0477   6
   4  -6  -8 517.091 61.8215   6
   6  -1  -8 379.020 53.5832   6
  -1  -5  -8 379.801 50.7450   6
   5  -6   5 40.7326 52.0044   3
  -6   1   5 60.2397 57.8167   3
  -1  -5  -5 11.9205 43.3654   2
  -5   6  -5 60.5938 21.4015   6
   1   5   5 51.2324 23.2205   5
   6  -1  -5 48.1758 37.2980   2
   1   5   5 30.7320 31.4530   8
  -6   1   5 30.3650 19.3146   5
   5  -6   2 9549.27 954.438   2
   6  -1  -2 10361.9 953.652   2
   5  -6  -1 12845.7 1187.39   3
  -6   1  -1 12225.7 1186.57   3
  -6   1  -4 434.323 66.3694   2
  -5   6   4 497.630 52.6268   8
  -5   6   4 525.671 68.7192   3
  -1  -5   4 514.843 50.3675   5
   1   5  -4 442.205 50.4325   6
   6  -1   4 454.316 65.6372   3
   1   5  -7 184.809 33.5680   6
   1   5 -10 374.345 61.1201   7
   6   0  -9 25.3080 51.7615   7
   6   0  -9-4.03526 31.1769   6
   0   6   6 304.670 41.1670   5
   0   6   6 307.374 51.4272   8
   6   0  -6 346.040 42.6921   6
  -6   0   6 335.600 40.1987   5
   6   0  -3 108.257 28.1705   2
   0   6   3 79.2378 23.9791   8
   0   6   3 69.1867 20.1704   5
  -6   0   3 83.9176 19.3248   8
   6   0   0 680.181 65.8474   1
  -6   6   0 635.900 69.8728   1
   0   6  -3 60.5797 17.8926   6
  -6   0  -3 45.9216 33.2890   2
   6   0   3 42.7779 23.5341   8
   0  -6   3 51.0960 15.2757   5
  -6   6   3 51.3932 19.9310   8
  -6   6   3 69.2208 39.9868   3
  -6   6   6-12.7156 33.9756   8
   0   6  -6 32.3796 23.5285   6
   0   6  -9 124.836 59.4240   7
   6  -6  -9 114.253 37.0427   6
   7  -6  -8 594.763 65.5635   6
  -7   6   8 447.907 58.5712   5
   7  -6  -5 825.616 96.5707   2
  -7   6   5 959.120 100.489   3
  -7   6   5 792.823 82.3663   8
  -1   7  -5 749.478 79.2448   6
  -7   6   5 778.089 79.5122   5
  -6  -1  -5 842.415 98.7973   2
  -7   6   2 1510.57 154.514   3
  -6  -1  -2 1611.33 155.034   3
  -6  -1   1 309.324 30.1986   2
   7  -6   1 108.774 24.8309   2
  -6  -1   4 46.8927 18.5342   5
  -1   7   4 80.0778 26.9993   8
  -1   7   4 69.3994 21.2824   5
   7  -6   4 31.5593 45.2304   3
   6   1  -4 53.8602 20.5131   6
   6   1  -7 633.173 65.4008   6
  -6  -1   7 498.093 60.7307   5
   6   1 -10 34.8133 39.2530   7
  -7   6 -10-19.9008 49.3916   7
  -2   7  -9 710.046 90.0959   7
   7  -5  -9 630.825 73.8874   6
  -7   5   6 299.169 38.3722   5
  -2   7  -6 321.089 39.8377   6
  -7   5   3 91.5022 42.1324   3
  -7   5   3 126.486 21.2937   4
   5   2   3 111.205 25.8426   8
  -7   5   3 132.742 22.6830   8
  -7   5   0 678.596 71.8928   1
   5   2   0 838.349 74.7361   1
   5   2  -3 584.964 56.8827   6
  -5  -2   3 505.226 55.8813   5
   7  -5   3 607.580 66.9197   3
  -2   7   3 623.162 59.1298   8
  -5  -2   6 50.3765 21.5836   5
   5   2  -6 36.0363 25.6684   6
  -2   7   6 9.68111 22.4279   5
  -2   7   6 17.3352 35.2343   8
   2  -7  -9 52.4550 31.8539   6
   5   2  -9 40.5994 31.2211   6
   5   2  -9 126.822 54.7807   7
   7  -4 -10-59.0943 39.8824   7
  -3   7 -10 22.4650 44.8621   7
   7  -4  -7 241.608 44.0507   6
  -3   7  -7 268.113 38.3737   6
  -7   4   7 202.101 36.3139   5
  -7   4   4 84.1321 52.1716   3
   4   3   4 61.2469 28.2883   8
   4   3   4 35.9262 20.8361   5
   7  -4  -4 63.0370 35.9604   2
  -7   4   4 50.4826 22.7718   8
  -3   7  -4 42.0622 18.8287   6
  -7   4  -2 1470.91 157.529   2
   3  -7  -2 1652.03 162.383   3
   7  -4   2 1329.10 156.002   3
  -3   7   5 614.124 57.7305   5
  -4  -3   5 529.602 56.0708   5
   3  -7  -5 537.735 74.3229   2
   4   3  -5 482.047 56.6118   6
   7  -4   5 493.716 73.3143   3
   4   3  -8 27.0724 32.5498   6
   7  -3  -8 615.089 73.0223   6
   7  -3  -5 1013.81 118.870   2
  -3  -4  -5 957.807 120.258   2
  -7   3   5 1190.51 124.218   3
  -7   3   5 1027.67 106.171   5
  -7   3   5 917.554 107.399   8
   3   4   5 1093.07 109.741   8
  -4   7  -5 1181.26 106.004   6
   3   4   5 1158.73 107.848   5
   7  -3  -2 12155.9 1160.39   2
  -3  -4  -2 11865.5 1161.41   3
   4  -7   2 12583.1 1162.08   2
  -7   3  -1 34.2594 20.3440   2
   4  -7  -1 34.5033 26.6468   1
   4  -7  -1 5.12712 40.5288   3
  -4   7   4 21.8508 49.3297   3
   7  -3   4-30.8250 44.0890   3
   3   4  -4 9.69229 18.3022   6
  -3  -4   4 22.7616 16.5516   5
  -7   3  -4 5.88433 42.6798   2
   3   4  -7 53.8020 27.9210   6
   3   4 -10 78.7815 44.4833   7
   7  -2  -9 75.6967 52.8958   7
   7  -2  -9 109.051 34.1151   6
  -5   7  -6 451.932 47.0308   6
   7  -2  -6 411.448 50.6059   6
  -7   2   6 350.656 45.2292   5
   7  -2  -3 339.608 41.3952   2
  -7   2   3 291.695 31.9923   8
  -7   2   3 274.720 31.7466   4
   2   5   3 263.716 32.5824   5
   2   5   3 233.062 35.1055   8
   5  -7   3 269.018 43.3081   2
   2   5   0 397.821 53.6545   1
  -5   7   0 421.543 53.0562   1
  -2  -5   3 295.874 30.0348   5
  -5   7   3 293.106 32.5150   4
   7  -2   3 268.054 48.9594   3
  -7   2  -3 235.182 44.8645   2
  -2  -5   3 335.206 45.2929   2
  -5   7   3 342.458 34.5553   8
   2   5  -3 162.121 31.5952   6
  -5   7   3 239.737 50.9745   3
   2   5  -6 1218.62 120.854   6
   5  -7  -9 556.465 68.5965   6
   2   5  -9 651.892 82.0047   7
  -6   7 -10 192.896 50.6703   7
   7  -1 -10 120.779 40.8686   7
  -7   1   7 56.6616 25.6462   5
   7  -1  -7 90.7477 34.4388   6
   1   6   4 951.427 96.5263   8
  -7   1   4 864.781 95.1363   8
   7  -1  -4 1022.43 102.460   2
   1   6   4 1052.65 96.0330   5
  -1  -6  -1 142.999 31.3446   1
  -1  -6   2 191.780 36.9747   2
  -6   7   2 187.714 23.8652   4
  -6   7   2 160.206 44.8590   3
   6  -7  -5 1508.11 157.436   2
  -7   1  -5 1719.52 161.795   2
  -6   7   5 1244.72 144.582   8
  -6   7   5 1719.95 158.015   3
   1   6  -5 1527.02 143.053   6
   6  -7  -8 47.3078 38.8324   6
   1   6  -8 125.559 33.1019   6
   7   0  -8 115.472 37.1729   6
   0   7   5 5285.34 483.220   5
  -7   0   5 5262.90 482.410   5
   0   7   5 4645.19 483.507   8
   7  -7   5 5020.79 487.736   3
   7   0  -5 4939.20 482.444   6
   7  -7   2 2339.61 227.270   2
   7  -7  -1 8015.29 764.214   3
  -7   0  -4 1770.72 180.342   2
   0   7  -4 1632.58 169.036   6
  -7   7   4 1744.91 178.219   3
  -7   7   4 1919.92 170.055   8
   0   7  -7 497.290 57.2864   6
   0   7 -10 27.1450 43.9619   7
   7  -7 -10-22.1761 40.2149   7
  -1   8  -9 109.094 54.3519   7
   8  -7  -9 86.9308 39.5763   6
  -1   8  -6 224.926 31.6392   6
  -8   7   6 155.512 37.7392   8
  -8   7   6 192.496 30.4018   5
  -8   7   3 3.30697 44.2120   3
  -8   7   3 6.62344 18.9196   8
  -1   8  -3 12.1769 17.0727   6
   7   1   3 5.28537 22.5682   8
   7   1   0 3299.53 291.020   1
  -8   7   0 3001.03 291.529   1
   8  -7   0 2894.40 290.296   3
  -1   8   3 1993.73 205.653   8
   7   1  -3 2146.54 205.141   6
  -1   8   3 2259.81 205.536   5
  -7  -1   6 765.256 78.1576   5
   7   1  -6 736.668 79.4990   6
  -1   8   6 799.164 80.2419   5
  -1   8   6 713.626 83.8915   8
   7   1  -9 76.1919 32.3888   6
   7   1  -9 86.8977 48.2926   7
   1  -8  -9 58.4543 32.0083   6
  -2   8 -10 58.6016 46.1310   7
   8  -6 -10 16.3776 26.3135   6
  -2   8  -7 348.659 43.5716   6
  -8   6   7 262.649 40.7559   5
   6   2   4 715.142 77.6751   8
  -2   8  -4 766.583 74.7395   6
  -6  -2  -4 615.968 86.7140   2
   8  -6  -4 771.907 86.3150   2
  -8   6   4 752.330 90.9671   3
  -8   6   4 761.368 75.4119   8
  -8   6   1 1279.46 126.147   3
  -6  -2   2 1228.61 97.8093   2
  -2   8   2 839.196 90.5072   8
   8  -6   5-24.5112 47.7520   3
   6   2  -5 8.64005 21.4150   6
  -2   8   5 18.0779 22.2856   5
  -6  -2   5 8.17349 18.0305   5
  -2   8   5 28.7474 30.1383   8
   6   2  -8 85.8771 32.7107   6
   6   2  -8 55.4295 50.3058   7
   8  -5  -8 288.589 47.4973   6
  -8   5   8 212.027 37.7098   5
  -8   5   5 331.468 42.2202   8
  -8   5   5 485.153 70.2615   3
   5   3   5 304.508 47.3443   8
   8  -5  -5 447.178 61.4607   2
  -3   8  -5 336.250 39.4301   6
  -8   5   5 307.277 38.2790   5
  -5  -3  -5 437.349 64.7112   2
  -8   5   2 109.501 38.0930   3
  -5  -3  -2 144.049 43.9034   3
  -8   5   2 130.232 19.5525   4
   3  -8   2 137.333 32.1748   2
   8  -5   1 2212.84 189.564   3
   3  -8  -1 1950.99 192.951   1
   8  -5   1 1712.09 189.839   2
   5   3  -4 23.0821 19.3479   6
  -3   8   4 30.5680 19.6329   5
   8  -5   4 26.8884 42.2440   3
  -5  -3   4 34.3414 16.9796   5
  -3   8   7 354.448 48.0527   5
   5   3  -7 411.433 49.9233   6
  -8   5 -10 70.5737 49.0237   7
   5   3 -10 78.0692 42.0418   7
  -4   8  -9 651.169 83.3106   7
   8  -4  -9 533.220 66.7834   6
  -8   4   6 175.471 30.9914   5
  -4   8  -6 289.460 34.4576   6
   8  -4  -3 1503.68 134.751   2
   4   4   3 1336.42 129.563   8
   4   4   3 1145.51 129.224   5
  -8   4   3 1285.53 128.691   4
   4  -8   3 1409.20 136.822   2
  -8   4   3 1478.41 128.857   8
  -4   8   0 9517.55 968.812   1
   4   4   0 10720.8 968.397   1
   4   4  -3 326.605 36.0385   6
  -8   4  -3 339.158 50.0114   2
   8  -4   3 217.097 47.9228   3
  -4  -4   3 329.921 34.1975   5
  -4  -4   6 297.787 34.7142   5
   4   4  -6 278.193 35.9930   6
  -4   8   6 181.278 35.2702   5
   4   4  -9 185.291 34.1900   6
   4   4  -9 171.292 54.3461   7
   4  -8  -9 174.686 38.4471   6
  -5   8 -10 80.1148 46.4915   7
   8  -3  -7 255.401 43.0189   6
  -8   3   7 179.844 34.4865   5
   3   5   4 4384.61 429.352   5
  -5   8  -4 4320.30 428.239   6
  -8   3   4 4506.32 428.675   8
   3   5   4 4484.58 429.467   8
  -8   3   4 5121.63 436.162   3
   8  -3  -4 5002.66 435.164   2
   8  -3  -1 22410.5 2085.03   2
  -3  -5  -1 20997.9 2086.19   1
  -3  -5   2 4206.24 319.337   2
  -8   3  -2 2977.70 316.692   2
   8  -3   2 3067.98 315.960   3
   5  -8  -2 3154.39 319.830   3
   3   5  -2 3753.06 313.633   6
  -5   8   2 2958.12 313.161   4
  -8   3  -5 3301.09 345.355   2
   3   5  -5 3395.92 333.344   6
   8  -3   5 3527.01 340.093   3
  -5   8   5 3434.85 333.893   5
  -3  -5   5 3662.02 333.452   5
   5  -8  -5 3298.51 343.253   2
   3   5  -8 108.755 33.1919   6
   3   5  -8 135.975 54.8912   7
   8  -2  -8 66.2019 38.3178   6
  -6   8  -5 2496.66 241.512   6
   2   6   5 2636.17 243.064   5
   2   6   5 2448.89 243.488   8
  -8   2   5 2458.76 241.865   5
  -8   2   5 2925.64 254.499   3
   8  -2  -5 2381.04 249.321   2
   6  -8   5 2418.17 249.907   3
   8  -2  -2 268.624 36.0836   2
  -2  -6  -2 284.175 56.5466   3
   6  -8   2 337.923 43.0285   2
   6  -8  -1 256.838 52.7611   3
   6  -8  -1 323.578 45.4420   1
  -8   2  -1 328.524 37.1897   2
  -8   2  -1 350.211 41.0785   3
  -6   8   4 422.097 42.4212   8
  -8   2  -4 393.873 61.1049   2
  -6   8   4 330.919 62.7858   3
   2   6  -4 297.620 38.5028   6
  -2  -6   4 326.021 37.5795   5
   8  -2   4 354.193 60.6487   3
   2   6  -7 241.437 37.8273   6
   2   6 -10 57.0723 44.0346   7
   8  -1  -9 386.371 53.3555   6
   8  -1  -9 434.618 64.5742   7
  -8   1   6 208.012 29.7850   5
   1   7   6 130.756 32.3556   5
   1   7   6 128.707 41.6058   8
   8  -1  -6 237.604 36.0314   6
   1   7   3 553.465 63.0827   8
  -8   1   3 626.152 61.1995   4
   8  -1  -3 635.252 65.8960   2
   7  -8   3 635.675 69.8192   2
   1   7   3 525.090 62.0367   5
  -8   1   3 673.496 61.1693   8
   1   7   0 13375.4 1205.20   1
  -7   8   0 12168.9 1203.55   1
  -7   8   3-3.47814 43.3040   3
  -1  -7   3 0.72997 34.6797   2
  -8   1  -3-4.96424 36.8673   2
   1   7  -3 9.62147 17.1543   6
  -7   8   3-1.78371 19.4760   8
  -7   8   3-4.17038 17.9935   4
   1   7  -6 3.28288 22.4582   6
  -7   8   6-6.42812 32.9540   8
   7  -8  -9 153.186 39.9549   6
   1   7  -9 138.256 53.9128   7
  -8   8 -10 76.8394 47.5410   7
   8   0  -7 263.347 43.3737   6
  -8   0   7 244.182 36.5378   5
   0   8   4 74.4868 21.0058   5
   8   0  -4 33.2901 19.1602   6
   0   8   4 67.7320 27.0733   8
   0  -8  -1 140.108 38.0273   1
  -8   0   1 250.451 31.1292   2
   0   8  -2 4371.87 391.158   7
  -8   8   2 3413.78 393.906   3
  -8   0  -2 3750.54 393.216   3
  -8   8   2 4205.43 390.763   8
  -8   8   5 653.445 67.3126   8
   8  -8  -5 608.641 83.4138   2
  -8   0  -5 594.291 86.6667   2
  -8   8   5 814.146 90.5412   3
   0   8  -5 579.050 64.2470   6
   8  -8  -8 1225.60 113.533   6
  -8   8   8 889.704 106.315   5
   0   8  -8 1279.96 119.087   7
  -1   9 -10 239.607 50.8861   7
   9  -8 -10 178.367 34.1348   6
  -1   9  -7-11.3471 29.4567   6
  -9   8   7 5.95548 25.3685   5
  -9   8   4 1866.07 159.002   8
  -8  -1  -4 1487.81 169.501   2
  -9   8   4 1602.92 168.382   3
  -1   9  -4 1485.97 158.376   6
   9  -8  -1 3222.36 310.069   1
   9  -8   2 3387.64 349.168   2
  -1   9   2 3727.36 346.736   8
   9  -8   5 135.524 51.8586   3
  -8  -1   5 158.944 24.1905   5
  -1   9   5 146.669 28.6212   5
  -1   9   5 118.018 33.0477   8
   8   1  -5 121.799 27.0213   6
   8   1  -8 22.4317 48.5892   7
   8   1  -8 39.2442 35.9194   6
  -9   7   8 207.796 38.6395   5
  -2   9  -8 297.369 59.1692   7
   9  -7  -8 327.918 50.3825   6
   9  -7  -5 248.721 57.9656   2
  -9   7   5 271.060 39.0109   8
  -2   9  -5 292.214 36.0113   6
  -7  -2  -5 317.301 61.4797   2
  -9   7   5 292.137 68.0290   3
  -9   7   2 37.1846 15.7264   8
  -7  -2  -2 1.69216 34.9645   3
  -9   7   2 35.7518 35.6152   3
   9  -7   1 503.785 53.0882   2
  -2   9   4 3991.47 372.199   8
   7   2  -4 3567.26 371.225   6
  -7  -2   4 4535.30 371.639   5
   9  -7   4 3669.12 375.124   3
  -2   9   4 3580.68 371.907   5
   7   2  -7 49.4469 31.2847   6
  -2   9   7 39.3785 28.8109   5
   7   2 -10 124.186 40.8337   7
  -9   7 -10 144.660 49.4909   7
   9  -6  -9 70.6107 37.9413   6
  -3   9  -9 96.2907 55.0010   7
  -9   6   6 793.364 77.9631   5
  -9   6   6 598.474 80.7747   8
  -3   9  -6 823.184 78.8620   6
  -9   6   3 3147.42 257.538   8
  -3   9  -3 2317.31 257.324   6
   3  -9   3 2661.67 264.158   2
  -9   6   3 2720.38 257.273   4
   6   3   3 2653.42 257.977   8
  -9   6   3 2562.50 262.353   3
   6   3   0 1006.75 101.349   1
   6   3  -3 4632.42 411.065   6
   3  -9  -3 4296.06 417.946   3
   9  -6   3 3421.01 412.984   3
  -3   9   3 3967.88 411.293   8
  -6  -3   3 4626.01 410.713   5
  -3   9   6 803.070 94.0246   8
  -6  -3   6 940.610 89.7195   5
  -3   9   6 871.244 90.5903   5
   6   3  -6 876.657 90.4993   6
   6   3  -9 25.6337 46.7589   7
   3  -9  -9 25.2408 32.7259   6
   6   3  -9 20.0037 29.6646   6
   9  -5 -10 26.6913 26.0816   6
  -4   9 -10 106.358 45.5786   7
  -9   5   7 78.4993 26.1397   5
   9  -5  -7 76.5647 38.0005   6
   5   4   4 174.112 34.5595   8
   9  -5  -4 212.082 44.3775   2
  -4   9  -4 177.094 28.1174   6
  -9   5   4 211.697 28.9769   8
  -9   5   4 196.110 58.5847   3
  -5  -4  -1 9624.06 917.122   1
  -4   9   2 643.712 70.8647   4
   4  -9  -2 589.495 87.7311   3
   9  -5   2 607.524 75.5762   3
   5   4  -2 787.315 70.9616   6
  -4   9   5 708.628 77.3957   5
   5   4  -5 705.612 76.9050   6
   9  -5   5 711.959 90.2517   3
  -5  -4   5 841.598 76.2926   5
   5   4  -8 154.195 37.4638   6
   5   4  -8 256.309 56.0291   7
  -9   4   8 139.206 32.4734   5
   9  -4  -8 202.572 44.1742   6
  -9   4   5 584.413 61.9957   5
  -9   4   5 807.572 89.7798   3
  -5   9  -5 674.513 63.0527   6
  -9   4   5 562.552 63.6524   8
   9  -4  -5 698.855 80.6420   2
   4   5   5 510.453 66.6927   8
  -4  -5  -5 438.985 77.8825   2
   9  -4  -2 64.0734 22.9738   2
  -9   4   2 58.6883 15.5042   4
  -4  -5  -2 46.4705 48.2110   3
   5  -9   2 28.5267 28.2656   2
   5  -9  -1 3929.58 378.269   1
  -4  -5   4 343.147 40.5714   5
   4   5  -4 408.371 41.9191   6
   9  -4   4 402.871 58.6486   3
  -9   4  -4 395.639 62.6665   2
   4   5  -7 21.4980 27.4223   6
  -5   9   7 33.3803 25.4877   5
   4   5 -10 369.467 58.1608   7
   9  -3  -9 103.183 47.6607   7
  -6   9  -9 48.0695 56.2006   7
   9  -3  -9 68.2836 35.6384   6
   9  -3  -6 142.280 34.9353   6
   3   6   6 100.846 40.4724   8
  -9   3   6 167.555 26.7944   5
   6  -9   3 634.148 66.7036   2
  -9   3   3 583.030 56.0773   8
   9  -3  -3 557.056 62.6053   2
   3   6   3 509.176 58.3433   8
  -3  -6  -3 612.796 77.5315   3
   3   6   3 520.279 57.3271   5
  -9   3   3 554.201 56.4464   4
   3   6   0 185.788 42.4192   1
  -6   9   0 213.118 41.2117   1
   3   6  -3 419.810 51.6820   6
  -9   3  -3 465.547 64.8196   2
  -6   9   3 567.367 53.5564   8
  -6   9   3 507.680 51.7884   4
  -3  -6   3 607.567 63.7787   2
  -3  -6   3 497.880 50.2890   5
   3   6  -6 280.008 39.4751   6
  -6   9   6 346.271 40.4567   5
   3   6  -9 98.5266 50.6197   7
   6  -9  -9 17.4209 36.0927   6
   9  -2 -10-3.69849 24.3286   6
  -7   9 -10 39.9130 45.3211   7
   9  -2  -7 151.113 39.4237   6
  -9   2   7 158.784 30.9355   5
   9  -2  -4 1030.18 113.978   2
   2   7   4 1054.72 109.173   8
   2   7   4 1247.88 109.051   5
  -9   2   4 1040.30 107.569   8
  -2  -7  -1 8705.81 830.925   1
   2   7  -2 282.610 33.9638   6
  -7   9   2 249.955 32.8878   4
  -7   9   2 308.532 34.1882   8
  -2  -7   2 359.439 43.1599   2
   2   7  -2 342.838 33.6780   7
  -9   2  -2 283.537 42.9590   2
  -9   2  -5 7.73712 53.4024   2
   7  -9  -5 12.5186 42.8667   2
  -7   9   5-2.03359 26.2606   8
  -7   9   5 20.7165 18.5502   5
   2   7  -5 4.43104 20.1855   6
   2   7  -8 147.158 53.7116   7
   9  -1  -8 439.963 60.7581   6
   9  -1  -8 499.761 69.5410   7
   1   8   5 540.310 56.3122   5
  -9   1   5 625.789 85.4402   3
   1   8   5 469.046 59.2663   8
  -9   1   5 529.212 53.6790   5
   9  -1  -5 425.475 55.2240   6
   8  -9   5 518.435 71.6456   3
   8  -9   2 82.4405 30.3386   2
   9  -1  -2 102.093 17.4808   6
   1   8   2 83.9782 21.0452   8
   8  -9  -1 1680.74 165.959   1
   8  -9  -1 1669.33 167.255   3
  -8   9   4 264.336 61.8010   3
   1   8  -4 301.597 34.8794   6
  -8   9   4 267.788 37.0393   8
  -9   1  -4 294.811 58.0614   2
   1   8  -7 267.035 40.8234   6
   1   8  -7 320.944 51.8168   7
   8  -9 -10 187.565 33.7875   6
   1   8 -10 201.522 49.6117   7
  -9   9  -9 56.8535 56.4280   7
   9   0  -9 28.7143 42.3429   7
   9   0  -9-0.43230 32.5107   6
  -9   0   6 13.7552 21.9474   5
   0   9   6 3.75032 36.7335   8
   9   0  -6-17.9862 28.5495   6
   0   9   6 24.2863 26.0335   5
  -9   0   3 170.197 22.1628   4
   0   9   3 118.628 25.6728   8
   0   9   3 108.375 24.4759   5
   0   9   0 11230.3 919.346   1
  -9   9   0 8913.66 915.758   1
  -9   9   3 2165.73 241.431   3
   0   9  -3 2673.19 235.879   6
  -9   9   3 2345.25 235.494   8
  -9   0  -3 2000.63 241.204   2
   0   9  -6 75.6260 26.8634   6
  -9   9   6 88.9842 34.0069   8
   0   9  -9 28.1684 50.4785   7
   9  -9  -9-8.68417 37.0912   6
  -1  10  -8 910.035 99.9212   7
  10  -9  -8 980.373 97.4371   6
 -10   9   8 766.760 91.2338   5
  -9  -1  -5 1547.80 169.631   2
 -10   9   5 1558.94 152.752   8
  10  -9  -5 1584.58 167.037   2
  -1  10  -5 1553.76 152.095   6
  -1  10  -2 2048.71 211.456   6
  -9  -1  -2 2159.24 215.209   3
 -10   9   2 1937.01 215.693   3
 -10   9   2 2337.87 211.493   8
  -1  10  -2 2366.96 212.017   7
  -9  -1   1 2592.07 210.954   2
   9   1  -1 2040.85 208.044   6
  -9  -1   4 5707.78 497.836   5
  -1  10   4 4710.06 498.438   8
  10  -9   4 4502.53 500.977   3
  -1  10   4 5200.77 498.704   5
   9   1  -4 5432.55 497.998   6
   9   1  -7 25.5466 32.5020   6
  -1  10   7 75.5000 42.9118   8
   9   1  -7 94.1882 42.3777   7
  -9  -1   7 39.3146 26.2438   5
 -10   9 -10 34.0288 44.3332   7
  10  -8  -9 22.4782 39.6473   6
  -2  10  -9-8.63418 50.6565   7
  -2  10  -6 77.0072 27.5719   6
 -10   8   6 43.9995 22.6299   5
 -10   8   6 62.6661 30.9966   8
  -2  10  -3 2485.10 223.686   7
 -10   8   3 2562.62 222.922   8
  -2  10  -3 2233.27 222.976   6
 -10   8   3 2078.54 228.713   3
   8   2   3 2079.09 223.351   8
   8   2   0 664.233 65.7563   1
 -10   8   0 592.512 65.3413   1
   8   2  -3 448.407 50.7330   6
  -2  10   3 477.777 52.4990   8
  10  -8   3 359.867 59.0898   3
   8   2  -3 559.294 50.2829   7
  -2  10   6 699.682 77.6096   5
  -2  10   6 619.499 80.7812   8
  -8  -2   6 817.844 76.1992   5
   8   2  -6 734.801 77.5315   6
   2 -10  -9 91.3497 33.9161   6
   8   2  -9 79.8147 33.6351   6
   8   2  -9 99.0792 46.0937   7
  -3  10 -10 205.486 49.2367   7
  10  -7 -10 159.603 32.9298   6
 -10   7   7 292.578 40.9156   5
 -10   7   4 1382.92 139.544   8
   7   3   4 1299.54 140.774   8
  -3  10  -4 1498.56 139.972   6
 -10   7   4 1540.72 151.424   3
  10  -7  -4 1565.71 149.936   2
 -10   7   4 1468.26 139.153   4
  -7  -3  -1 23.1862 21.7180   1
 -10   7   1 60.3686 34.2782   3
  10  -7  -1 45.2816 26.9812   1
  -3  10   2 1574.18 162.918   8
  10  -7   2 1524.71 164.551   3
  -3  10   2 1723.34 162.671   4
   3 -10  -2 1734.25 172.194   3
  -7  -3   5 460.471 44.4959   5
  -3  10   5 397.488 46.5290   5
   7   3  -5 357.064 45.7887   6
  10  -7   5 398.150 63.4045   3
  -3  10   5 348.010 49.9280   8
   7   3  -8 209.112 53.4861   7
   7   3  -8 178.266 39.6314   6
  10  -6  -8 168.671 45.3188   6
 -10   6   8 112.692 31.9918   5
  -4  10  -8 143.830 55.3318   7
 -10   6   5 40.2133 61.6212   3
  10  -6  -5 18.7209 43.6055   2
  -4  10  -5 31.3837 24.0662   6
   6   4   5 7.43704 32.2770   8
 -10   6   5 25.3244 24.4319   8
  -6  -4  -5-27.9503 47.7229   2
  -4  10  -2 2535.37 215.603   7
 -10   6   2 2009.11 218.205   3
  -6  -4  -2 2136.36 220.356   3
 -10   6   2 2163.20 214.345   4
   4 -10  -1 1264.41 109.061   1
  10  -6   1 980.479 100.297   2
   6   4  -4 350.555 37.8380   6
  10  -6   4 237.850 54.3722   3
  -6  -4   4 308.628 35.9971   5
   6   4  -7 99.1982 32.2583   6
   6   4  -7 71.4280 41.9463   7
  -4  10   7 90.7802 29.1626   5
   6   4 -10 33.9120 39.0242   7
 -10   6 -10 22.0707 47.5680   7
  -5  10  -9 92.2251 53.9029   7
  10  -5  -9 107.277 37.3619   6
  10  -5  -9 77.6802 46.4626   7
 -10   5   6 137.119 26.3520   5
 -10   5   3 7249.16 693.375   3
 -10   5   3 7378.37 689.226   4
  -5  -5  -3 7369.65 694.518   3
   5   5   3 6355.83 689.472   8
   5 -10   3 8136.21 695.747   2
 -10   5   3 7546.08 689.099   8
  10  -5  -3 7557.82 692.997   2
   5   5   0 15429.2 1475.98   1
  -5  10   0 15582.8 1477.29   1
  -5  -5   3 733.952 71.6713   5
  -5  10   3 620.556 73.2553   4
 -10   5  -3 575.396 81.2143   2
  -5  -5   3 953.617 84.0114   2
   5   5  -3 787.856 73.2739   7
  10  -5   3 613.578 82.0332   3
   5   5  -3 805.642 73.2075   6
   5   5  -6 62.7937 25.4769   6
  -5  10   6 92.5719 26.7141   5
   5 -10  -9 102.944 37.5300   6
   5   5  -9 80.8555 31.4156   6
   5   5  -9 127.707 49.3227   7
  -6  10 -10 47.9853 43.6100   7
  10  -4 -10 24.2996 27.4334   6
 -10   4   7 162.137 30.8067   5
  10  -4  -7 196.436 43.0206   6
  10  -4  -4 353.505 51.0597   2
 -10   4   4 439.792 68.2272   3
   4   6   4 323.959 42.5463   8
 -10   4   4 307.636 38.2609   8
   4   6   4 315.760 39.0787   5
  -6  10  -4 340.200 39.0326   6
  10  -4  -1 1278.85 125.648   2
  -4  -6  -1 1381.14 129.900   1
  -6  10   2 194.489 28.3620   4
   6 -10  -2 263.298 57.7739   3
 -10   4  -2 234.711 41.4470   2
   4   6  -2 245.061 28.5528   7
   4   6  -2 264.545 28.8443   6
  -4  -6   2 277.468 39.9124   2
  -4  -6   5 303.351 37.4882   5
   4   6  -5 331.597 38.8789   6
  -6  10   5 338.654 39.5923   5
  -6  10   8 125.605 33.5345   5
   4   6  -8 161.007 51.0890   7
   4   6  -8 114.404 34.4309   6
  10  -3  -8 268.908 48.2375   6
 -10   3   8 228.725 38.4662   5
 -10   3   5 313.009 36.8259   5
  10  -3  -5 279.004 48.3054   2
   3   7   5 264.385 44.1810   8
 -10   3   5 333.356 75.0720   3
   3   7   5 362.741 41.4857   5
 -10   3   2 1009.49 91.5409   4
   7 -10   2 759.541 96.7592   2
  10  -3  -2 1059.97 94.5026   2
  -3  -7  -2 913.830 105.643   3
   3   7   2 864.310 92.0267   8
 -10   3  -1 89.5505 26.8105   3
   7 -10  -1 103.614 47.1877   3
   7 -10  -1 131.792 40.3681   1
 -10   3  -1 90.3738 22.7860   2
 -10   3  -4 4526.55 402.154   2
  -3  -7   4 4720.49 389.927   5
  -7  10   4 3763.47 390.439   8
   3   7  -4 3632.73 389.873   6
  -7  10   7 15.1039 25.2736   5
   3   7  -7 9.19069 40.4734   7
  -7  10   7-0.97717 40.8430   8
   3   7  -7 30.0784 27.8883   6
   3   7 -10 70.6960 44.1282   7
  10  -2  -9 43.3726 40.7817   7
  10  -2  -9 51.2633 34.9916   6
  -8  10  -9 3.71853 55.7320   7
 -10   2   6 171.067 29.3371   5
  10  -2  -6 232.320 36.7415   6
   2   8   3 5458.26 553.715   8
 -10   2   3 6117.04 553.085   8
  -2  -8  -3 6259.97 559.984   3
 -10   2   3 5882.55 553.133   4
   2   8   3 5905.35 553.924   5
   8 -10   3 5498.19 558.312   2
  10  -2  -3 5181.09 555.346   2
   2   8   0 7411.26 619.966   1
  -8  10   0 5871.31 617.587   1
  -2  -8   3 2200.37 186.584   2
   2   8  -3 1902.41 177.668   7
 -10   2  -3 1649.73 185.063   2
   2   8  -3 1967.62 177.561   6
  -8  10   3 1635.27 177.100   4
  -8  10   3 1877.56 177.701   8
   2   8  -6 1214.20 125.404   6
  -8  10   6 1160.27 127.913   8
   2   8  -6 1445.06 127.888   7
   2   8  -9 101.468 49.4446   7
   8 -10  -9 118.216 40.4703   6
  10  -1 -10 64.1426 26.5589   6
  -9  10 -10 44.9184 44.0933   7
 -10   1   7 1024.41 108.479   5
  10  -1  -7 1151.00 112.602   6
   1   9   4 459.992 60.3459   8
   1   9   4 604.620 59.4717   5
  10  -1  -4 576.333 58.2170   6
  -1  -9  -1 1413.84 142.443   1
   1   9  -2 573.657 62.6171   6
   1   9  -2 725.558 62.9959   7
  -9  10   2 616.838 62.0331   4
  -9  10   2 622.439 62.2343   8
 -10   1  -2 480.870 68.0724   3
   1   9  -5 58.3306 21.9983   6
  -9  10   5 68.7974 26.5853   8
 -10   1  -5 90.4436 59.9690   2
   9 -10  -5 27.2018 44.7967   2
   1   9  -8 35.2214 30.3256   6
   1   9  -8-2.52240 48.0473   7
  10   0  -8 535.973 69.2532   7
  10   0  -8 484.303 63.8232   6
   0  10   5 329.997 45.0090   8
  10 -10   5 342.736 61.3293   3
   0  10   5 325.331 42.8911   5
  10   0  -5 294.010 41.2737   6
 -10   0   5 382.614 40.0155   5
   0 -10  -2 139.357 38.6493   1
 -10   0   2 198.644 22.5428   4
   0  10   2 152.860 26.0059   8
  10   0  -2 187.333 23.3308   6
  10 -10   2 120.149 32.5270   2
   0  10  -1 9752.14 853.722   7
 -10   0  -1 8834.96 854.160   1
  10 -10  -1 9949.44 856.689   1
   0  10  -1 8733.90 853.297   6
 -10  10   1 8511.35 853.241   4
   0  10  -4 370.841 43.8677   7
 -10  10   4 356.424 43.4328   8
   0 -10   4 452.001 59.1300   2
   0  10  -4 377.692 43.7112   6
 -10   0  -4 346.580 65.4656   2
   0  10  -7 98.9959 42.1538   7
   0  10  -7 89.4487 31.5717   6
 -10  10   7 61.5958 38.2706   8
   0  10 -10 11.5482 44.4201   7
  10 -10 -10 11.0041 27.9736   6
  -1  11  -9 221.693 54.6083   7
  11 -10  -9 217.869 46.6632   6
  -1  11  -6 567.037 63.9756   7
 -11  10   6 515.926 63.3887   8
  -1  11  -6 551.503 61.4335   6
  -1  11  -3 1539.02 147.704   7
 -11  10   3 1531.88 156.364   3
 -11  10   3 1727.88 147.369   8
  -1  11  -3 1293.25 147.371   6
 -11  10   0 29.5811 26.1909   1
  11 -10   0 17.8625 23.3030   3
 -10  -1   3 2000.80 191.832   4
  10   1  -3 2338.84 192.044   7
  -1  11   3 1857.79 192.767   8
  -1  11   3 1691.39 192.561   5
  -1  11   6 4.33569 27.5618   5
 -10  -1   6 53.1612 22.6868   5
  10   1  -6 7.71996 27.8654   6
  10   1  -6 54.2337 31.3390   7
  -1  11   6 48.8797 36.8164   8
  10   1  -9 345.348 45.6383   6
   1 -11  -9 209.333 42.1861   6
  10   1  -9 261.694 50.7963   7
  -2  11 -10 40.7000 45.3195   7
  11  -9 -10 1.79134 27.8462   6
  -2  11  -7 277.715 48.8840   7
 -11   9   7 216.627 36.4093   5
  -2  11  -7 258.207 40.6160   6
  -2  11  -4 2148.11 210.046   7
  -2  11  -4 2387.34 209.863   6
  -9  -2  -4 1776.09 218.627   2
 -11   9   4 2283.82 219.331   3
 -11   9   4 2075.48 209.283   8
  11  -9  -1 807.119 80.8613   1
  -9  -2  -1 730.269 78.2116   1
  11  -9   2 410.658 59.4459   2
  -9  -2   2 729.562 64.4214   2
   2 -11  -2 567.548 76.8833   3
  -2  11   2 504.294 56.2314   8
  -2  11   2 604.103 56.3372   4
  -2  11   5 773.298 77.9181   5
  -2  11   5 622.211 78.5319   8
  11  -9   5 754.299 88.8126   3
   9   2  -5 685.478 76.6850   6
  -9  -2   5 856.036 75.9456   5
   9   2  -8 52.2045 34.5178   6
   9   2  -8 90.0280 45.2877   7
  11  -8  -8 211.221 48.1596   6
 -11   8   8 126.161 32.7340   5
  -3  11  -8 144.390 52.6907   7
  11  -8  -5 23.5774 45.0345   2
  -3  11  -5 40.9764 24.2301   6
 -11   8   5 16.4498 24.4261   8
  -8  -3  -5 16.3020 51.1018   2
 -11   8   2 716.888 88.6979   3
 -11   8   2 766.965 80.9385   4
  -3  11  -2 809.834 80.7312   6
 -11   8   2 895.628 80.6403   8
  -8  -3  -2 894.837 89.5798   3
  11  -8   1 1258.59 150.390   2
   8   3  -1 1778.32 149.517   6
  -3  11   1 1521.07 149.670   8
  -3  11   4 200.378 35.8879   8
   8   3  -4 292.414 31.9034   7
  -3  11   4 154.076 31.7414   5
  -8  -3   4 279.660 29.6806   5
  11  -8   4 185.945 48.8313   3
   8   3  -4 238.252 31.2798   6
   8   3  -7 6.73760 31.4953   6
  -3  11   7 38.5278 28.4147   5
  -3  11   7 74.6309 44.3072   8
   8   3  -7 40.2543 41.3542   7
  11  -7  -9 1.03350 38.6368   6
  -4  11  -9 20.7023 52.1656   7
 -11   7   6 2.39868 29.7592   8
  -4  11  -6 22.3300 28.5922   6
 -11   7   6 4.05145 21.3676   5
   7   4   3 320.091 37.9314   8
 -11   7   3 322.039 55.4508   3
  -7  -4  -3 277.870 61.6560   3
 -11   7   3 311.252 36.1762   4
  -4  11  -3 296.430 36.2408   6
 -11   7   3 323.668 35.8859   8
   4 -11   3 324.408 51.9004   2
   7   4   0 865.052 90.6040   1
  -4  11   0 911.709 98.3880   1
  -4  11   3 25.9748 22.0208   8
  -7  -4   3 23.2151 13.6324   5
   4 -11  -3-5.12249 59.2969   3
  11  -7   3-4.43717 36.3595   3
   7   4  -3 15.8374 17.0144   7
   7   4  -3 14.4686 18.0205   6
   7   4  -6 398.238 49.1208   6
  -4  11   6 419.880 49.7562   5
  -4  11   6 334.991 55.9263   8
   7   4  -6 402.623 52.8700   7
  -7  -4   6 463.834 47.7322   5
   7   4  -9-0.78146 29.8276   6
   4 -11  -9-3.63356 34.6028   6
   7   4  -9-1.72983 44.9048   7
  -5  11 -10 51.7671 44.4996   7
  11  -6 -10 59.8732 27.9107   6
  11  -6  -7-5.02607 40.6592   6
 -11   6   7 47.2027 23.8362   5
  -5  11  -4 154.813 26.7931   6
  11  -6  -4 155.897 40.1465   2
   5 -11   4 93.9172 40.9169   2
 -11   6   4 142.935 24.7779   4
 -11   6   4 113.223 24.3450   8
   6   5   4 150.674 30.6151   8
 -11   6   4 127.310 57.9437   3
  -5  11  -1 140.886 24.0010   7
 -11   6   1 167.498 31.2554   3
 -11   6   1 161.432 22.6785   4
  -6  -5  -1 163.811 31.1902   1
   5 -11  -2 26.8080 50.2736   3
  -6  -5   2 43.0035 31.8588   2
   5 -11  -2 32.4718 36.7809   1
   6   5  -2 34.1674 17.6429   6
   6   5  -2 43.2340 16.5403   7
  -5  11   2 11.3178 17.8503   4
  -6  -5   5 1029.52 100.106   5
  -5  11   5 963.991 101.372   5
  11  -6   5 1082.28 113.759   3
   6   5  -5 1009.97 100.365   6
   6   5  -8 3.94468 31.8316   6
   6   5  -8 16.2074 46.4533   7
  -6  11  -8-0.70474 50.8444   7
 -11   5   8 13.7755 27.0148   5
  11  -5  -8 8.17203 43.7426   6
 -11   5   5 908.010 101.859   8
   5   6   5 803.776 104.444   8
  11  -5  -5 1072.06 115.280   2
  -5  -6  -2 17549.9 1614.44   3
 -11   5   2 17047.1 1610.66   4
  11  -5  -2 17581.7 1612.43   2
  -6  11  -2 16145.5 1611.36   7
   6 -11  -1 418.909 58.9858   1
   5   6  -4 2039.81 201.438   6
   5   6  -4 2284.96 201.920   7
  -5  -6   4 2001.52 200.863   5
  -6  11   7 107.802 30.4632   5
   5   6  -7 161.336 32.5000   6
   5   6  -7 153.956 43.0286   7
   5   6 -10 55.9326 39.0488   7
  11  -4  -9 10.1957 36.6652   6
  -7  11  -9-2.11378 53.5311   7
 -11   4   6 342.978 40.5153   5
  11  -4  -6 371.063 47.7536   6
   4   7   6 249.756 50.2495   8
  11  -4  -3 510.063 58.0064   2
   4   7   3 462.133 54.1371   8
   7 -11   3 619.962 65.1295   2
   4   7   3 403.382 52.8523   5
 -11   4   3 566.085 52.5392   4
 -11   4   3 536.909 51.5469   8
  -4  -7  -3 491.021 76.7388   3
  -7  11   0 86.6699 40.8703   1
   4   7   0 81.9260 40.0695   1
  -4  -7   3 441.085 51.9428   2
  -7  11   3 340.344 40.1027   8
  -7  11   3 336.211 39.0778   4
   4   7  -3 379.229 38.7427   7
   4   7  -3 329.241 38.9255   6
  -4  -7   3 333.290 35.8716   5
 -11   4  -3 283.807 57.1482   2
   4   7  -6 433.727 51.5320   7
   4   7  -6 382.751 46.5070   6
  -7  11   6 372.303 46.8592   5
   7 -11  -9-22.9899 36.6252   6
   4   7  -9-9.92804 46.9486   7
  11  -3 -10 101.246 29.5451   6
  -8  11 -10 182.659 45.6597   7
 -11   3   7 147.242 30.9219   5
  11  -3  -7 218.379 42.3101   6
   3   8   4 2142.49 219.182   8
 -11   3   4 2330.70 218.284   8
   3   8   4 2334.70 219.404   5
  11  -3  -4 2237.02 223.174   2
  -3  -8  -1 1223.93 124.712   1
   8 -11  -2 96.4070 38.9992   1
  -8  11   2 86.7084 19.8160   8
   3   8  -2 99.6258 19.9037   7
 -11   3  -2 75.0959 33.6500   2
   3   8  -2 96.0840 20.0061   6
  -8  11   2 79.5386 18.8538   4
   8 -11  -2 101.949 49.9467   3
   3   8  -5 246.035 35.0938   6
  -8  11   5 261.848 38.6968   8
   3   8  -5 319.957 37.8757   7
 -11   3  -5 302.886 67.4965   2
   3   8  -8 268.154 43.6089   6
   3   8  -8 341.338 57.0234   7
  11  -2  -8 18.9690 44.2098   7
  11  -2  -8 14.8497 37.2362   6
   2   9   5 167.062 35.7031   8
  11  -2  -5 147.308 30.8039   6
 -11   2   5 179.412 27.1383   5
   2   9   5 171.168 31.2580   5
   9 -11   5 195.091 53.3958   3
  -2  -9  -2 881.149 114.575   1
   9 -11   2 975.430 113.628   2
 -11   2   2 1155.89 108.288   4
   2   9   2 1164.19 109.368   8
  11  -2  -2 1149.77 108.812   6
 -11   2  -1 12336.5 1186.72   3
   9 -11  -1 13271.2 1189.59   1
   9 -11  -1 12451.7 1188.04   3
  -9  11   1 12159.2 1185.62   4
   2   9  -1 13216.0 1185.93   7
  -9  11   1 12363.4 1185.79   8
 -11   2  -1 12259.6 1186.69   2
   2   9  -1 12262.0 1185.81   6
 -11   2  -4 109.334 52.7376   2
  -9  11   4 111.674 26.2829   8
   2   9  -4 90.5383 24.3082   7
  -9  11   4 108.431 24.2856   4
  -2  -9   4 146.655 41.9192   2
   2   9  -4 83.8327 23.0302   6
   2   9  -7 746.071 80.9665   6
  -9  11   7 604.416 85.2875   8
   2   9 -10 118.489 43.4692   7
   9 -11 -10 54.5082 28.6956   6
  11  -1  -9 43.7090 34.7406   6
  11  -1  -6 179.358 36.9873   6
   1  10   6 147.260 42.0482   8
   1  10   6 236.723 36.2896   5
 -11   1   6 202.297 30.3953   5
   1  10   3 912.990 92.7399   5
 -11   1   3 994.910 91.7223   4
   1  10   3 911.656 93.3027   8
  10 -11   3 837.110 98.5706   2
   1  10   0 3598.70 280.478   1
 -10  11   0 2701.45 273.048   4
 -10  11   0 2965.92 276.102   1
  -1 -10   3 78.3181 41.0047   2
   1  10  -3 55.6185 20.5546   6
 -11   1  -3 96.3111 44.7453   2
 -10  11   3 11.4284 20.5733   8
 -10  11   3 28.7798 19.9522   4
   1  10  -3 37.1165 20.5321   7
   1  10  -6 8.19386 25.6992   6
 -10  11   6-15.9828 32.3541   8
   1  10  -6-21.6129 32.1922   7
  10 -11  -9 14.8461 38.8758   6
   1  10  -9 53.1111 48.4783   7
  11   0 -10 50.2621 24.6286   6
  11   0  -7 595.528 70.3097   6
  11   0  -7 746.871 73.7128   7
 -11   0   7 613.895 66.2578   5
  11 -11   4 285.198 52.6373   3
  11   0  -4 303.651 35.7021   6
   0  11   4 282.273 38.6226   8
  11   0  -4 328.093 35.4895   7
   0  11   4 242.333 37.4085   5
   0 -11  -1 14.0190 33.7590   1
  11   0  -1 35.1922 15.0850   6
 -11   0   1 63.6188 21.7441   2
   0  11   1 29.4883 16.6585   8
   0  11  -2 1409.22 140.269   6
 -11   0  -2 1362.51 145.155   3
  11 -11  -2 1622.81 147.567   1
   0  11  -2 1625.76 141.040   7
 -11  11   2 1396.80 140.086   8
 -11  11   2 1412.56 140.006   4
   0  11  -5 25.5244 23.7412   6
   0  11  -5 52.0505 26.7366   7
 -11  11   5 24.0073 25.1534   8
 -11   0  -5 69.5645 60.5661   2
  11 -11  -8 221.915 51.3933   6
   0  11  -8 172.236 50.7762   7
  -1  12 -10 15.4928 40.8785   7
  12 -11 -10-0.74078 28.7112   6
 -12  11   7 253.427 45.2682   8
  -1  12  -7 250.022 40.2304   6
  -1  12  -7 257.800 48.2874   7
  -1  12  -4 340.396 38.1425   6
   1 -12   4 400.762 58.4715   2
  -1  12  -4 271.054 37.6009   7
 -12  11   4 280.051 36.7556   8
 -11  -1  -4 227.657 63.0598   2
 -12  11   1 283.370 30.8117   8
  12 -11  -1 268.916 42.7180   1
 -11  -1  -1 273.436 37.9196   1
 -12  11   1 282.343 33.1368   4
 -11  -1   2 118.153 18.5973   4
  12 -11   2 92.0192 28.8021   2
  -1  12   2 102.763 22.6045   8
   1 -12  -2 56.0619 38.5517   1
  11   1  -2 120.680 20.6431   6
  12 -11   5 512.702 71.1742   3
  -1  12   5 476.051 57.2249   5
  11   1  -5 571.842 57.1114   7
  11   1  -5 469.556 57.4018   6
  -1  12   5 445.577 58.9703   8
 -11  -1   5 596.566 55.6833   5
  11   1  -8-5.90866 36.4899   6
  11   1  -8 6.63357 40.6038   7
 -12  10   8 9.75789 28.5191   5
  -2  12  -8 3.08606 45.3970   7
  12 -10  -8-15.8072 44.7997   6
  -2  12  -5 81.0057 25.4736   6
  -2  12  -5 76.7035 28.1496   7
 -12  10   5 53.8494 25.5323   8
 -10  -2  -5 48.6191 56.0829   2
 -12  10   2 1849.79 163.262   8
  -2  12  -2 1580.87 163.309   6
 -10  -2  -2 1552.42 168.234   3
  10   2  -1 3957.47 381.488   6
  -2  12   1 3637.70 381.585   8
  10   2  -4 540.783 61.9495   6
  10   2  -4 663.547 61.6722   7
  12 -10   4 583.110 73.2022   3
  -2  12   4 517.800 62.7013   5
 -10  -2   4 681.283 60.9363   5
  -2  12   4 521.435 64.4573   8
  -2  12   7 133.630 32.6253   5
 -10  -2   7 153.405 29.8063   5
  10   2  -7 129.249 35.8946   6
  -2  12   7 83.5592 44.3451   8
  10   2  -7 145.493 40.3614   7
  -3  12  -9 62.7694 50.2532   7
  12  -9  -9 75.7298 41.4890   6
  -3  12  -6 16.2245 31.8171   7
  -3  12  -6 30.2066 29.0382   6
 -12   9   6 5.10510 28.7914   8
 -12   9   6 23.5654 22.2494   5
 -12   9   3 1404.84 128.418   8
 -12   9   3 1290.81 138.352   3
   9   3   3 1229.75 129.318   8
  -3  12  -3 1330.53 129.130   6
  -9  -3  -3 1302.41 139.276   3
 -12   9   3 1316.71 128.587   4
   9   3   0 757.813 78.3231   1
   9   3  -3 562.875 52.9261   6
  12  -9   3 441.007 61.3751   3
  -3  12   3 375.180 54.3146   8
   3 -12  -3 453.538 80.0927   3
   9   3  -3 559.698 52.1222   7
   9   3  -6 27.0699 26.1025   6
  -3  12   6 28.1610 36.4078   8
  -9  -3   6 2.74348 21.7818   5
   9   3  -6 41.6156 31.0746   7
  -3  12   6 8.89043 25.8318   5
   9   3  -9 114.682 46.0043   7
   9   3  -9 132.941 34.1841   6
   3 -12  -9 94.8199 36.6320   6
  -4  12 -10 37.5609 43.6032   7
  12  -8 -10 45.1907 28.7495   6
 -12   8   7 245.821 37.4633   5
  -4  12  -7 302.455 52.2509   7
  -4  12  -4 1471.35 135.152   6
   8   4   4 1097.52 135.868   8
   4 -12   4 1495.58 146.845   2
  12  -8  -4 1410.46 144.399   2
 -12   8   4 1349.10 134.039   8
 -12   8   4 1474.59 134.356   4
 -12   8   4 1474.95 147.564   3
  12  -8  -1 4999.65 455.303   1
  -4  12  -1 4727.97 454.256   7
 -12   8   1 4478.39 453.801   4
  -8  -4  -1 5305.10 456.640   1
 -12   8   1 4836.75 455.197   3
  -4  12   2 1994.44 204.204   8
   4 -12  -2 2125.46 213.629   3
  12  -8   2 2003.04 205.684   3
  -4  12   2 2157.34 203.783   4
   4 -12  -2 1957.97 209.752   1
  -4  12   5 1124.97 112.452   5
  -8  -4   5 1148.20 111.189   5
  -4  12   5 987.616 113.492   8
  12  -8   5 1036.35 122.253   3
   8   4  -5 1369.01 112.987   7
   8   4  -5 1045.27 111.693   6
   8   4  -8 126.613 46.6050   7
   8   4  -8 119.473 36.4376   6
 -12   7   8 285.758 43.1347   5
  -5  12  -8 353.737 60.2447   7
  12  -7  -8 344.969 56.8777   6
 -12   7   5 419.916 52.3834   8
  12  -7  -5 489.807 70.0544   2
   7   5   5 432.140 57.1339   8
  -5  12  -5 563.634 54.6424   6
 -12   7   2 215.981 44.6830   3
 -12   7   2 217.080 29.3524   4
  -5  12  -2 235.741 31.5680   7
  -7  -5  -2 285.289 52.2549   3
 -12   7   2 258.350 27.7797   8
   5 -12  -1 342.875 55.5605   1
   7   5  -1 409.949 42.2374   6
  -7  -5   4 51.5127 16.5364   5
  12  -7   4 37.8684 44.7978   3
   7   5  -4 52.3092 20.7481   7
   7   5  -4 52.5252 19.7162   6
   7   5  -7 103.935 32.9765   6
  -5  12   7 131.799 32.3039   5
   7   5  -7 162.958 41.1364   7
  12  -6  -9 388.321 56.6374   6
  -6  12  -9 428.393 66.7441   7
 -12   6   6 997.316 100.580   5
 -12   6   3 150.694 21.2835   8
  12  -6  -3 107.313 30.6946   2
 -12   6   3 150.079 23.0235   4
  -6  -6  -3 118.816 56.3399   3
   6   6   3 115.624 25.2698   8
  -6  12  -3 88.6227 26.8168   7
   6 -12   3 87.4545 40.2668   2
 -12   6   3 148.890 52.3866   3
  -6  12   0 298.822 49.2106   1
   6   6   0 202.151 25.7638   6
   6   6   0 311.505 42.6366   1
   6 -12  -3 50.4704 60.6711   3
  -6  12   3 28.2536 20.8125   4
   6   6  -3 16.7810 17.6550   7
  -6  -6   3-4.10249 12.3163   5
  -6  -6   3 24.6921 35.0314   2
   6   6  -3 8.02639 18.6302   6
   6   6  -6 504.779 55.6523   7
  -6  12   6 466.623 52.1602   5
   6   6  -6 384.425 51.1929   6
   6 -12  -9 88.0827 38.0556   6
   6   6  -9 74.9364 29.6078   6
   6   6  -9 51.2214 47.2566   7
  -7  12 -10 40.8843 42.6453   7
  12  -5 -10 10.5964 27.7263   6
  12  -5  -7 407.704 58.1112   6
 -12   5   7 387.110 48.1977   5
  12  -5  -4 140.527 37.0058   2
 -12   5   4 103.998 22.9542   8
 -12   5   4 118.647 61.5311   3
   5   7   4 99.7307 28.5744   8
  -7  12  -4 117.804 23.3638   6
   7 -12   4 136.599 40.7065   2
 -12   5   4 146.488 24.5226   4
  -7  12  -1 1270.84 118.997   7
 -12   5   1 1335.60 118.214   4
  -5  -7  -1 1229.71 123.536   1
  12  -5  -1 1106.31 117.732   2
  -7  12   2 1724.49 197.159   4
   5   7  -2 2361.61 198.105   6
   7 -12  -2 2007.26 204.582   1
  -5  -7   2 2088.82 201.748   2
   7 -12  -2 1852.77 205.858   3
   5   7  -2 2305.75 197.779   7
   5   7  -5 155.045 27.7411   6
  -7  12   5 159.479 27.5730   5
   5   7  -5 203.796 31.3539   7
   5   7  -8 244.092 41.6840   6
   5   7  -8 360.286 55.8256   7
  -7  12   8 241.356 41.9038   5
  -8  12  -8 125.186 55.2059   7
  12  -4  -8 73.7838 41.1912   6
 -12   4   8 68.9897 28.9345   5
  12  -4  -8 76.7312 44.7519   7
   4   8   5 326.808 45.7670   8
   4   8   2 8878.00 807.015   8
  -4  -8  -2 7164.66 809.928   1
 -12   4   2 8721.76 806.809   4
  -8  12  -2 8687.91 807.807   7
  12  -4  -2 7737.74 807.963   2
   4   8  -1 963.848 83.9508   7
   8 -12  -1 902.019 93.5277   1
  -8  12   1 780.131 83.0265   4
  -8  12   1 845.905 84.1069   8
   8 -12  -1 798.414 96.1946   3
   4   8  -4 4.20344 19.3427   6
   4   8  -4 6.43532 21.2004   7
  -8  12   4 11.7814 23.8423   8
   4   8  -7 30.9793 29.1014   6
   4   8  -7 84.6169 38.9245   7
  -8  12   7 44.7779 28.2680   5
  -8  12   7 62.0850 40.8616   8
   4   8 -10-3.76229 38.5035   7
   8 -12 -10-2.41799 27.6759   6
  -9  12  -9 83.4815 52.1302   7
  12  -3  -9 62.8369 36.1195   6
  12  -3  -6 844.019 92.9886   6
 -12   3   6 1008.18 89.8898   5
   3   9   6 694.787 94.0226   8
   3   9   3 123.943 26.2213   8
   9 -12   3 65.7631 36.5125   2
  -3  -9  -3 194.345 60.4518   3
 -12   3   3 139.211 23.2315   4
   3   9   3 144.244 24.0087   5
 -12   3   3 152.333 21.2794   8
   3   9   0 542.100 60.7778   1
  -9  12   0 445.899 56.9778   1
  -9  12   0 404.984 45.1643   4
   3   9  -3 2280.62 192.760   6
  -9  12   3 1741.24 192.016   8
  -9  12   3 1800.40 191.882   4
 -12   3  -3 2001.74 202.039   2
  -3  -9   3 2604.35 202.545   2
   3   9  -3 2118.40 192.110   7
  -9  12   6 421.580 58.7775   8
   3   9  -6 560.014 57.1503   7
  -9  12   6 430.957 53.8358   5
   3   9  -6 475.315 54.3719   6
   3   9  -9 544.446 74.7947   7
   9 -12  -9 533.585 68.3355   6
  12  -2 -10 1.94277 25.8937   6
 -10  12 -10 8.61108 41.8820   7
  12  -2  -7 128.114 42.5805   7
 -12   2   7 130.380 31.2443   5
   2  10   4 101.660 28.6456   8
   2  10   4 146.727 26.2851   5
  -2 -10  -1 1548.93 187.539   1
  12  -2  -1 1996.46 182.762   6
  10 -12  -2 357.038 53.7523   1
 -10  12   2 322.424 36.8220   8
   2  10  -2 386.071 37.7667   7
   2  10  -2 275.977 37.1268   6
 -12   2  -2 319.571 48.5393   2
 -10  12   2 325.899 36.8610   4
   2  10  -5 30.3419 23.1005   6
 -10  12   5 32.0352 27.0055   8
   2  10  -5 44.3044 25.6660   7
 -12   2  -5 38.1112 62.7109   2
   2  10  -8 8.68275 29.3593   6
   2  10  -8 10.1507 45.1314   7
  12  -1  -8 37.8930 38.6090   6
  12  -1  -8 17.4650 38.8622   7
  12  -1  -5 46.9476 25.2281   6
   1  11   5 70.7109 26.7114   5
 -12   1   5 93.4394 21.6859   5
   1  11   5 57.2170 29.5822   8
  11 -12   5 57.2956 50.1093   3
  12  -1  -5 68.4681 25.1482   7
  12  -1  -2 2161.29 185.462   6
  11 -12   2 1677.11 189.667   2
 -12   1   2 1941.81 184.799   4
  -1 -11  -2 1500.99 190.453   1
   1  11   2 1881.23 185.674   8
   1  11  -1 7761.93 692.464   7
 -12   1  -1 7263.08 692.885   1
 -11  12   1 6819.87 692.022   4
   1  11  -1 7471.74 692.231   6
 -11  12   1 7181.94 692.116   8
  11 -12  -1 7286.11 694.669   3
 -12   1  -4 469.512 74.6072   2
 -11  12   4 414.092 46.0728   4
  -1 -11   4 542.125 65.4191   2
   1  11  -4 423.769 46.4772   7
   1  11  -4 390.542 45.6919   6
 -11  12   4 361.045 46.8984   8
 -11  12   7 675.690 82.6207   8
   1  11  -7 698.363 79.7693   6
   1  11  -7 877.313 84.3875   7
  11 -12 -10 26.6722 29.7777   6
   1  11 -10 104.364 40.7106   7
  12   0  -9 101.790 37.6726   6
   0  12   6 453.769 57.4949   5
  12   0  -6 431.723 58.5964   6
 -12   0   6 546.020 55.1188   5
   0  12   6 446.949 61.8928   8
  12   0  -6 561.859 58.8722   7
   0  12   3 974.677 105.021   5
   0  12   3 1007.07 105.499   8
   0 -12  -3 689.466 112.402   1
  12 -12   3 767.978 109.491   2
 -12   0   3 1070.38 103.933   4
 -12  12   0 49.1776 29.1902   1
  12 -12   0 57.3917 28.4593   3
   0  12   0 56.1696 42.9497   1
 -12  12   0 27.1641 19.4432   4
   0  12  -3 3965.20 353.663   6
 -12  12   3 3703.26 352.951   8
 -12   0  -3 3246.77 359.962   2
 -12  12   3 3435.18 352.944   4
   0  12  -3 3654.60 353.343   7
   0  12  -6 79.3507 28.3970   6
 -12  12   6 92.9150 33.3725   8
   0  12  -6 85.8003 31.8332   7
  12 -12  -9 57.7975 40.3749   6
   0  12  -9 42.1928 48.7145   7
  -1  13  -8 37.2813 45.5174   7
  13 -12  -8 70.3698 47.5760   6
  -1  13  -5 55.3877 26.8247   7
  -1  13  -5 42.6175 24.9548   6
 -13  12   5 23.0085 25.1046   8
  -1  13  -2 25.3006 17.7316   6
  -1  13  -2 16.9465 20.2975   7
 -12  -1  -2-27.7436 40.0273   3
 -13  12   2 23.2839 17.6841   8
  13 -12  -2-1.70967 35.1035   1
  -1  13   1 1204.22 140.932   8
  12   1  -1 1451.55 140.627   6
  12   1  -4 626.146 59.4420   6
  13 -12   4 559.532 70.1053   3
  -1  13   4 495.989 59.9764   5
  -1  13   4 485.872 61.3379   8
  12   1  -4 695.192 58.5788   7
  12   1  -7 10.2868 33.8452   6
 -12  -1   7 10.7808 24.5331   5
  12   1  -7 37.8707 35.4043   7
  -1  13   7 11.8087 44.2351   8
  12   1 -10 17.4932 22.6304   6
  13 -11  -9 234.783 49.5434   6
  -2  13  -9 247.126 56.2738   7
  -2  13  -6 361.303 45.8518   6
 -13  11   6 292.023 46.3973   8
  -2  13  -6 392.700 49.4038   7
 -11  -2  -3 5326.76 571.450   3
 -13  11   3 5735.25 567.158   8
  -2  13  -3 6800.15 567.934   6
  -2  13  -3 5681.91 567.743   7
  11   2   0 249.352 28.1163   6
  -2  13   3 764.321 93.2850   8
  13 -11   3 738.013 97.5404   3
  -2  13   6 19.1043 36.5347   8
  11   2  -6 74.3206 29.3366   6
 -11  -2   6 81.0099 23.2340   5
  11   2  -6 56.6980 29.9404   7
  -2  13   6 36.4818 28.1022   5
 -13  11  -9 33.0830 55.3173   7
  11   2  -9 40.0388 33.2238   6
   2 -13  -9-10.2289 33.3341   6
  13 -10 -10 137.393 33.5892   6
  -3  13 -10 188.900 45.4012   7
  -3  13  -7 29.7238 38.8984   7
 -13  10   7 28.0340 26.8646   5
 -13  10   4 47.7340 21.3021   4
 -13  10   4 11.2652 57.0007   3
  -3  13  -4 49.4807 24.2775   7
  -3  13  -4 57.7082 24.7673   6
 -13  10   4 21.6778 21.0698   8
  13 -10  -4 68.9839 37.9578   2
  13 -10  -1 1994.14 193.212   1
  -3  13  -1 1974.49 190.491   7
   3 -13  -2 48.4576 60.4390   3
  -3  13   2 78.7795 20.6199   4
  10   3  -2 110.104 18.8511   6
  13 -10   2 49.0056 22.7530   2
  -3  13   2 79.3426 22.7154   8
  13 -10   2 95.9141 27.6844   3
 -10  -3   2 113.889 34.0066   2
  -3  13   5 155.766 28.3848   5
  13 -10   5 67.1268 50.0659   3
 -10  -3   5 129.594 23.5196   5
  10   3  -5 91.2442 25.9720   6
  -3  13   5 134.048 33.6529   8
  10   3  -5 153.907 27.2404   7
  10   3  -8 23.2783 35.1111   6
  10   3  -8 46.7535 42.4534   7
  13  -9  -8 133.117 47.2549   6
  -4  13  -8 87.6003 47.6358   7
 -13   9   8 90.9701 31.8821   5
  13  -9  -5 427.766 66.7065   2
 -13   9   5 383.400 46.0954   8
  -4  13  -5 332.879 47.7448   7
  -4  13  -5 433.563 48.0645   6
  -9  -4  -2 1612.13 147.717   3
 -13   9   2 1611.29 140.416   8
  -9  -4  -2 1404.88 144.942   1
  -4  13  -2 1271.46 140.493   6
 -13   9   2 1483.12 140.938   4
 -13   9   2 1417.99 146.282   3
  13  -9   1 268.852 36.1913   2
  -4  13   1 271.366 36.8698   8
  -4  13   4 438.791 55.3430   5
   9   4  -4 483.126 54.3740   6
  -4  13   4 459.969 57.5216   8
   9   4  -4 544.699 54.8442   7
  13  -9   4 489.721 68.5362   3
  -9  -4   4 627.456 53.8990   5
  -4  13   7 12.8962 29.1872   5
  -4  13   7 37.1937 42.5712   8
   9   4  -7 33.6329 31.2072   6
   9   4  -7 29.2491 37.4008   7
  13  -8  -9 238.678 46.9332   6
  -5  13  -9 258.961 57.2248   7
 -13   8   6 411.560 49.6993   5
 -13   8   6 420.384 52.7360   8
  -5  13  -6 459.916 55.3159   7
 -13   8   3 4548.07 437.762   3
 -13   8   3 4674.16 432.747   4
  -8  -5  -3 4419.88 438.923   3
   8   5   3 4529.34 433.061   8
 -13   8   3 4923.15 432.632   8
  13  -8  -3 4371.67 436.599   2
   5 -13   3 5489.07 442.612   2
  -5  13  -3 3941.84 432.691   6
  -5  13   0 790.179 74.0654   1
   8   5   0 780.100 65.8049   1
  -5  13   3 59.9997 22.9195   4
  -8  -5   3 57.4082 35.4073   2
   8   5  -3 69.1795 20.2142   6
   8   5  -3 58.4708 19.6650   7
  -5  13   3 63.8496 24.8233   8
   5 -13  -3 83.0508 61.2944   3
  -8  -5   3 73.5977 15.4492   5
   5 -13  -3 45.4187 40.9618   1
  13  -8   3 57.3728 42.8948   3
  -5  13   6 333.305 52.6527   8
  -5  13   6 364.973 46.4151   5
   8   5  -6 335.672 45.6164   6
  -8  -5   6 393.063 44.1914   5
   8   5  -6 438.343 49.1603   7
   8   5  -9 129.484 33.2377   6
   8   5  -9 175.078 47.8560   7
   5 -13  -9 158.951 40.4377   6
  -6  13 -10-8.82007 42.6469   7
  13  -7 -10 12.1368 27.8298   6
  -6  13  -7 76.1777 43.9037   7
 -13   7   7 79.9966 26.0670   5
  13  -7  -7 90.4607 43.0558   6
 -13   7   4 132.320 58.9787   3
  -6  13  -4 98.8753 25.2741   6
 -13   7   4 115.662 24.4992   4
 -13   7   4 132.143 22.9308   8
  13  -7  -4 82.7988 37.0794   2
   7   6   4 96.0533 29.7370   8
   6 -13   4 83.7689 42.9664   2
  -7  -6  -1 3160.71 292.047   1
 -13   7   1 2990.09 288.835   4
 -13   7   1 3199.00 290.168   3
  -6  13  -1 2920.47 289.200   7
  13  -7  -1 2993.67 289.414   1
   6 -13  -2 414.324 68.6719   1
   7   6  -2 695.532 57.6308   7
  -6  13   2 464.430 57.1427   4
   6 -13  -2 482.108 78.3182   3
  -7  -6   2 649.174 66.2718   2
  -6  13   5 851.707 90.2437   5
  -7  -6   5 945.297 88.5847   5
   7   6  -5 800.084 89.2937   6
   7   6  -5 945.702 90.1666   7
   7   6  -8 5.64948 32.2822   6
   7   6  -8 35.4543 44.2906   7
  -7  13  -8 197.490 53.8902   7
 -13   6   8 166.197 34.9181   5
  13  -6  -8 227.568 49.9265   6
   6   7   5 70.3926 31.4932   8
  13  -6  -5 55.5110 40.9569   2
 -13   6   5 74.4068 24.8196   8
  -6  -7  -2 1657.51 192.272   1
   6   7   2 2077.91 188.335   8
  -7  13  -2 2074.91 189.297   7
 -13   6   2 1928.77 188.202   4
  13  -6  -2 1852.32 189.726   2
  -7  13   1 1183.81 115.101   4
   7 -13  -1 1263.27 124.432   1
   6   7  -4 359.526 39.4747   7
  -6  -7   4 336.199 37.3485   5
   6   7  -4 338.657 39.6449   6
  -7  13   7 29.7261 30.2723   5
   6   7  -7 18.9962 29.9972   6
   6   7  -7 13.6045 36.5800   7
  -8  13  -9 77.8034 51.2642   7
  13  -5  -9 62.8759 38.5849   6
   5   8   6 6.37041 36.3673   8
 -13   5   6 40.9916 22.9869   5
  13  -5  -6-0.46764 34.5762   6
  -8  13  -3 770.362 85.7771   7
 -13   5   3 899.334 82.4690   8
   5   8   3 765.172 84.6657   8
  13  -5  -3 796.484 87.5484   2
  -5  -8  -3 768.808 101.661   3
 -13   5   3 896.241 83.4802   4
   8 -13   3 796.184 94.5530   2
  -8  13   0 2896.68 263.691   1
   5   8   0 2502.29 257.937   6
  -5  -8   3 380.330 50.3585   2
   5   8  -3 331.027 34.6455   7
   5   8  -3 317.492 35.3143   6
  -5  -8   3 283.182 30.4605   5
  -8  13   3 241.941 36.7856   8
  -8  13   3 235.273 34.7781   4
  -8  13   6 9.26490 23.3434   5
   5   8  -6 8.65044 24.4986   6
   5   8  -6 22.0943 29.3646   7
   8 -13  -9 88.9974 40.0532   6
   5   8  -9 136.987 49.9258   7
  13  -4 -10 41.9364 27.4401   6
  -9  13 -10 38.1809 42.4781   7
  13  -4  -7 211.985 43.6798   7
  13  -4  -7 197.078 43.6010   6
 -13   4   7 142.008 31.2071   5
 -13   4   4 2137.88 186.206   4
   4   9   4 1775.38 187.055   8
   9 -13   4 1759.56 194.192   2
   4   9   4 1852.06 186.958   5
 -13   4   4 1944.29 185.970   8
 -13   4   1 2352.98 217.323   4
  -9  13  -1 1948.50 217.828   7
  13  -4  -1 2443.59 217.457   6
   4   9  -2 4887.19 431.437   6
   9 -13  -2 4420.94 436.475   1
   9 -13  -2 4426.14 436.708   3
  -9  13   2 4022.60 430.737   4
  -9  13   2 4316.61 431.118   8
   4   9  -2 5155.67 431.351   7
   4   9  -5 1671.34 177.087   6
  -9  13   5 1761.83 178.337   8
   4   9  -5 2039.41 177.528   7
  -9  13   8 4.93032 30.6235   5
   4   9  -8 4.12559 43.3066   7
   4   9  -8 2.78372 29.6972   6
 -13   3   8 81.5399 30.3693   5
  13  -3  -8 140.434 43.4505   6
  13  -3  -5 133.088 29.6800   6
   3  10   5 104.932 32.5157   8
   3  10   5 110.199 28.6576   5
  13  -3  -2 72.5141 18.0362   6
   3  10   2 79.7493 21.4264   8
 -10  13  -2 83.5124 25.6671   7
  -3 -10  -2 48.8537 35.4190   1
 -13   3   2 67.7613 17.9737   4
 -10  13   1 5601.68 553.262   4
 -13   3  -1 5427.16 553.276   1
 -10  13   1 5833.10 553.609   8
   3  10  -1 5973.02 553.537   6
 -13   3  -1 6004.47 554.326   3
   3  10  -1 6336.16 553.778   7
  10 -13  -1 5644.68 556.438   3
 -13   3  -4-2.91464 58.5558   2
 -10  13   4 1.47153 24.0585   8
   3  10  -4 13.3173 20.8988   7
   3  10  -4-3.88705 20.9969   6
  -3 -10   4 42.0141 39.5461   2
 -10  13   4-3.64695 22.2656   4
 -10  13   7-4.70645 40.3412   8
 -10  13   7 59.4079 28.3602   5
   3  10  -7 32.1054 31.1392   6
   3  10  -7 62.4108 37.2850   7
   3  10 -10 225.288 46.0840   7
  10 -13 -10 203.274 37.1426   6
  13  -2  -9 257.986 45.5573   6
  13  -2  -6 49.5949 31.5827   7
   2  11   6 32.4368 36.2429   8
  13  -2  -6 32.1475 32.0511   6
 -13   2   6 55.7917 23.3095   5
 -13   2   3 126.274 21.5292   4
  11 -13   3 109.577 36.3287   2
  13  -2  -3 120.185 21.9641   6
   2  11   3 96.5855 21.8751   5
  -2 -11  -3 159.361 63.0275   3
   2  11   3 99.0499 25.4448   8
  -2 -11  -3 102.116 40.4798   1
   2  11   0 3523.20 285.335   1
 -11  13   0 2914.10 281.241   1
 -11  13   0 2794.37 277.635   4
   2  11  -3 395.796 44.9307   7
 -13   2  -3 384.938 65.8698   2
   2  11  -3 382.532 44.8134   6
 -11  13   3 395.618 44.9381   8
  -2 -11   3 515.915 62.4088   2
 -11  13   3 399.666 44.4641   4
 -11  13   6 0.80869 24.5723   5
 -11  13   6 1.90752 32.6974   8
   2  11  -6-3.10936 28.8040   7
   2  11  -6-5.48005 24.9267   6
   2  11  -9 140.054 50.3190   7
  11 -13  -9 95.3567 42.5890   6
  13  -1 -10 7.13097 24.7556   6
  13  -1  -7 219.776 44.3339   6
   1  12   7 127.223 48.6075   8
 -13   1   7 261.369 35.5567   5
  13  -1  -7 207.491 42.1916   7
  13  -1  -4-5.36370 18.3874   7
   1  12   4-1.31876 26.5657   8
   1  12   4 21.7419 22.2877   5
  -1 -12  -4-16.6922 65.2465   3
  -1 -12  -4-3.58996 38.3629   1
 -12  13  -1 32.9808 18.8704   7
  13  -1  -1 28.6661 15.5892   6
 -13   1   1 35.1780 14.4268   4
   1  12   1 24.1475 16.6599   8
   1  12  -2 1988.48 179.098   7
  12 -13  -2 1727.47 185.638   1
 -13   1  -2 1792.48 184.129   2
   1  12  -2 1949.61 179.132   6
 -13   1  -2 1738.32 182.964   3
 -12  13   2 1800.21 178.473   4
 -12  13   2 1816.30 178.517   8
   1  12  -5 306.934 41.2647   6
 -12  13   5 347.578 42.8714   8
 -13   1  -5 409.886 85.8536   2
   1  12  -5 322.722 41.7864   7
   1  12  -8 793.136 93.1579   7
  13   0  -8 1.02630 36.5039   6
 -13  13  -8-2.25757 54.4439   7
  13   0  -5 8.56618 25.3800   6
 -13   0   5 2.39683 19.9200   5
  13   0  -5 7.47285 22.3583   7
   0  13   5 3.81901 25.3907   5
   0  13   5 17.8568 28.3818   8
  13 -13   5 58.3729 48.2489   3
   0  13   2 607.551 69.2482   8
   0 -13  -2 494.298 80.3444   1
 -13  13  -2 601.495 70.8942   7
   0  13   2 698.347 68.1012   5
  13   0  -2 788.742 68.5922   6
  13 -13   2 585.967 74.2785   2
 -13   0   2 731.382 67.6602   4
 -13  13   1 1721.87 162.043   4
   0  13  -1 1656.47 162.315   7
 -13  13   1 1664.39 161.744   8
 -13   0  -4 171.461 58.0409   2
   0  13  -4 127.418 26.5511   7
 -13  13   4 92.1645 24.6720   8
   0 -13   4 75.0077 46.8659   2
   0  13  -4 109.543 25.0284   6
   0  13  -7 23.6528 30.6841   6
 -13  13   7-4.89084 36.5127   8
   0  13  -7 29.5740 37.2813   7
  13 -13 -10 7.57596 29.7244   6
   0  13 -10 52.3652 40.4339   7
  -1  14  -9 40.2058 47.3293   7
  14 -13  -9 12.9198 41.9180   6
  -1  14  -6 95.1082 30.9728   6
 -14  13   6 54.8909 31.7928   8
  -1  14  -6 71.0596 32.1905   7
 -14  13   3 62.7248 21.3968   8
  -1  14  -3 55.0679 23.5492   6
   1 -14   3 107.180 46.2134   2
  -1  14  -3 78.0398 24.6341   7
  -1  14   0 782.071 76.8952   1
 -14  13   0 670.874 58.8115   4
 -13  -1   3 340.228 38.4413   4
  13   1  -3 345.125 38.8409   6
  13   1  -3 447.889 39.4436   7
  14 -13   3 319.238 49.9480   3
  -1  14   3 324.762 39.8382   5
   1 -14  -3 217.065 53.5908   1
  -1  14   3 289.199 41.5826   8
  13   1  -6 28.3915 28.7289   7
  -1  14   6 16.3584 27.6024   5
  13   1  -6 32.7319 29.1979   6
  -1  14   6 22.2368 36.5433   8
 -13  -1   6 29.8725 21.6905   5
  13   1  -9 143.781 36.7461   6
 -14  13  -9 160.067 56.3101   7
  -2  14 -10 0.50043 39.2600   7
  14 -12 -10 17.4246 30.0459   6
 -14  12   7 251.374 46.2041   8
  -2  14  -7 286.245 47.5459   7
 -14  12   7 251.395 41.1263   5
  -2  14  -7 306.124 45.3582   6
  -2  14  -4 70.2265 24.8523   7
 -12  -2  -4 89.6084 51.6822   2
 -14  12   4 68.8290 22.6445   8
  -2  14  -4 48.1202 24.3229   6
 -14  12   1 180.830 23.1001   8
  -2  14   2 911.278 98.8511   8
 -12  -2   2 1065.48 96.8656   4
  12   2  -2 1093.91 97.8741   6
  14 -12   2 892.040 99.6031   3
  14 -12   2 853.332 101.089   2
  12   2  -5 627.761 64.9942   6
  -2  14   5 519.495 65.3229   5
  14 -12   5 602.304 78.7563   3
  -2  14   5 501.424 67.5607   8
  12   2  -5 650.284 64.3373   7
 -12  -2   5 672.744 63.1119   5
  12   2  -8 380.616 54.1016   6
 -14  11   8 190.981 37.8592   5
  14 -11  -8 306.063 54.3206   6
  -3  14  -8 190.660 51.3293   7
  -3  14  -5-5.19037 27.0883   6
 -14  11   5 17.8755 24.6214   8
  -3  14  -5 7.83935 26.2933   7
  14 -11  -2 2094.36 214.319   1
  -3  14  -2 2243.72 209.663   6
 -11  -3  -2 2177.37 214.487   1
 -14  11   2 2218.76 209.140   8
 -11  -3  -2 1920.65 214.690   3
 -11  -3   1 1993.23 167.782   2
  -3  14   1 1676.43 166.002   8
  11   3  -1 1918.50 165.660   6
  14 -11   4 1682.22 189.618   3
  11   3  -4 1783.26 184.645   6
  -3  14   4 1649.69 185.674   8
  11   3  -4 2153.52 184.786   7
 -11  -3   4 2268.67 184.561   5
  -3  14   4 1665.21 185.299   5
  -3  14   7 32.2489 43.2668   8
  11   3  -7 32.6881 36.7290   7
  -3  14   7 52.3634 28.9554   5
  11   3  -7 75.7949 32.7670   6
 -14  11 -10 131.747 44.3210   7
  -4  14  -9 65.2333 49.8749   7
  14 -10  -9 61.7688 43.2559   6
  -4  14  -6 20.0769 32.8088   7
 -14  10   6 8.44000 29.6562   8
  -4  14  -6 35.4432 32.2653   6
 -14  10   6 14.1613 23.5421   5
 -14  10   3 4156.78 395.260   8
   4 -14   3 4763.08 406.035   2
  10   4   3 4310.45 395.987   8
 -14  10   3 4085.60 395.500   4
 -10  -4  -3 4047.77 401.309   3
 -14  10   3 3988.88 400.880   3
  -4  14  -3 3987.73 395.739   6
  10   4   0 475.629 48.4983   6
   4 -14  -3 153.592 47.7556   1
  -4  14   3 170.930 32.5399   8
  14 -10   3 145.394 41.9485   3
  10   4  -3 262.898 28.5820   7
   4 -14  -3 181.516 66.3254   3
  10   4  -6 274.735 42.3359   6
  -4  14   6 289.629 42.6072   5
  -4  14   6 258.177 48.8303   8
  10   4  -6 389.696 45.1127   7
 -10  -4   6 368.095 40.3694   5
  10   4  -9 46.2183 31.4379   6
  -5  14 -10 32.9722 41.1763   7
  14  -9 -10 38.4620 29.0307   6
  -5  14  -7 154.363 44.4798   7
  14  -9  -7 169.620 48.9778   6
 -14   9   7 127.839 30.6575   5
 -14   9   4 15.3776 20.7473   4
   9   5   4 36.6772 26.7872   8
 -14   9   4 42.4323 19.8338   8
 -14   9   4-9.93136 56.1672   3
   5 -14   4 21.5554 43.2957   2
  14  -9  -4 29.6698 36.8357   2
  -5  14  -4 45.4048 24.2182   6
 -14   9   1 149.283 24.6773   4
  -5  14  -1 137.628 24.4438   7
   5 -14  -2 242.605 52.6849   1
  -9  -5   2 377.977 45.3209   2
   9   5  -2 338.350 33.7742   7
  -5  14   2 278.397 34.4833   4
   5 -14  -2 291.782 65.9799   3
  -5  14   2 233.521 36.9517   8
   9   5  -5 49.5838 23.5820   7
  -5  14   5 72.4338 25.0150   5
  -9  -5   5 42.1857 18.5545   5
   9   5  -5 50.3189 22.6319   6
  -5  14   5 31.2804 32.4164   8
   9   5  -8 50.9566 35.8664   6
   9   5  -8 106.594 44.5527   7
 -14   8   8 3.33607 29.1926   5
  -6  14  -8 5.70369 47.8014   7
  14  -8  -8-3.75519 46.1520   6
 -14   8   5 55.4950 24.5834   8
  14  -8  -5 23.3659 44.1861   2
  -6  14  -5 86.0454 28.9456   6
   8   6   5 86.4962 32.7104   8
  -8  -6  -2 23.0027 26.5430   1
 -14   8   2 5.48711 14.9107   8
 -14   8   2 7.80192 18.3875   4
 -14   8   2 29.6051 37.6762   3
  14  -8  -2 5.25357 19.7305   2
  -6  14  -2 5.10432 21.7652   7
   8   6  -1 612.887 61.6992   6
   8   6  -4 287.935 33.3736   6
  -8  -6   4 241.440 30.0308   5
   8   6  -4 271.820 32.9274   7
   8   6  -7 24.2154 36.2645   7
  -6  14   7 20.4075 28.2276   5
   8   6  -7 3.32932 29.7439   6
 -14   8 -10-20.8245 44.3895   7
  14  -7  -9 39.8083 38.3376   6
  -7  14  -9-8.33869 50.5108   7
 -14   7   6 405.874 48.0732   5
 -14   7   3 11454.6 1068.13   4
 -14   7   3 11288.7 1067.85   8
  -7  14  -3 10784.8 1068.11   6
  -7  -7  -3 11246.8 1073.37   3
  -7  14  -3 11000.1 1069.05   7
 -14   7   3 11925.8 1072.39   3
  14  -7  -3 10922.4 1071.36   2
   7 -14   3 13028.7 1076.79   2
   7   7   3 11128.8 1068.35   8
   7   7   0 1441.13 114.482   1
  -7  14   0 1252.95 117.432   1
   7   7  -3 2739.77 229.214   7
  -7  -7   3 2388.17 227.788   5
   7 -14  -3 1808.72 236.594   1
   7 -14  -3 2282.00 239.958   3
  -7  -7   3 2767.15 237.137   2
  -7  14   3 2102.62 228.673   4
   7   7  -3 2432.84 229.112   6
   7   7  -6 425.440 53.1903   6
   7   7  -6 543.764 56.0517   7
  -7  14   6 447.610 54.0267   5
   7   7  -9 22.2182 27.4712   6
   7 -14  -9 11.1805 38.2592   6
   7   7  -9 26.0179 43.4053   7
  14  -6 -10 23.6406 28.2223   6
  -8  14 -10 24.3207 42.7219   7
  14  -6  -7 285.738 52.2444   6
 -14   6   7 266.222 38.8635   5
  14  -6  -4 141.608 37.1353   2
 -14   6   4 191.020 27.8640   4
 -14   6   4 178.143 26.2155   8
  -8  14  -4 160.783 32.4619   7
   6   8   4 185.215 31.1655   8
   8 -14   4 146.752 45.9611   2
 -14   6   4 242.965 62.8436   3
  -8  14  -1 3856.03 337.974   7
  14  -6  -1 3017.46 337.151   1
 -14   6   1 3936.89 337.509   4
  -8  14   2 926.729 108.509   4
   6   8  -2 1268.85 109.831   6
   8 -14  -2 995.202 123.078   3
   6   8  -2 1314.00 109.432   7
   8 -14  -2 928.738 119.620   1
   6   8  -5 42.1190 23.4519   7
  -8  14   5 14.5309 20.6519   5
   6   8  -5 23.0406 21.9610   6
   6   8  -8 6.65660 30.9685   6
  -8  14   8 10.7324 29.8896   5
   6   8  -8-16.8780 43.7735   7
 -14   5   8 119.608 32.3861   5
  14  -5  -8 185.341 47.3401   6
   5   9   5 389.551 53.5077   8
  14  -5  -5 463.924 51.8720   6
   5   9   2 759.052 74.3121   8
 -14   5   2 762.972 74.0953   4
  -9  14  -2 766.070 76.0631   7
  -5  -9  -2 604.984 81.6160   1
  -9  14   1 409.328 44.0195   8
  -9  14   1 390.936 41.4691   4
   9 -14  -1 397.044 63.3680   3
   5   9  -4 661.228 65.4589   7
  -9  14   4 644.738 65.9976   4
   5   9  -4 645.790 65.9063   6
  -9  14   4 529.134 66.7971   8
  -5  -9   4 774.961 79.6723   2
   5   9  -7-10.0297 28.6320   6
  -9  14   7-4.61912 27.7854   5
   5   9  -7 16.9822 36.1754   7
  -9  14   7 6.84596 41.8610   8
   9 -14 -10 107.156 31.2379   6
   5   9 -10 118.147 38.3900   7
  14  -4  -9 35.1381 37.3762   6
  14  -4  -6 20.1249 30.4654   7
  14  -4  -6 16.4226 33.4067   6
 -14   4   6 6.35520 23.2092   5
   4  10   6 14.9189 36.6143   8
  14  -4  -3 186.591 26.0267   6
 -14   4   3 211.645 26.2877   4
  -4 -10  -3 131.470 43.7513   1
 -14   4   3 211.413 24.1856   8
   4  10   3 133.532 24.8941   5
  -4 -10  -3 160.579 64.6041   3
   4  10   3 151.860 28.4993   8
  10 -14   3 180.717 42.7331   2
 -10  14  -3 172.613 32.6952   7
 -10  14   0 0.51917 34.2079   1
 -10  14   0 25.4989 17.2621   4
   4  10   0 17.9638 39.4106   1
  -4 -10   3 220.230 47.7925   2
   4  10  -3 274.165 31.7001   7
  10 -14  -3 260.833 54.9046   1
 -10  14   3 203.016 33.2010   8
 -14   4  -3 223.992 55.2919   2
   4  10  -3 202.642 32.0473   6
 -10  14   3 247.589 31.3182   4
   4  10  -6 805.594 78.1845   7
 -10  14   6 656.234 76.5171   5
 -10  14   6 729.894 79.6484   8
   4  10  -6 725.114 76.2565   6
   4  10  -9 23.0982 45.7008   7
  10 -14  -9 25.0901 40.2350   6
  14  -3 -10-12.6034 26.3443   6
 -11  14  -7 251.268 53.7898   7
  14  -3  -7 216.483 46.8540   6
 -14   3   7 210.985 35.5514   5
  -3 -11  -4 857.598 110.069   3
   3  11   4 767.005 87.7630   5
  14  -3  -4 1048.66 86.6260   7
   3  11   4 718.537 88.4825   8
 -14   3   4 1004.58 87.1208   4
  14  -3  -1 1188.57 101.701   6
 -14   3   1 1095.68 101.335   4
   3  11   1 1105.56 101.312   8
 -11  14   2 806.859 87.0307   4
  11 -14  -2 909.564 102.855   3
 -11  14   2 753.152 87.4580   8
   3  11  -2 959.556 87.8250   6
 -14   3  -2 1001.44 97.1494   2
   3  11  -2 1012.15 87.9191   7
  11 -14  -2 829.216 99.7977   1
   3  11  -5 90.9651 25.4136   6
 -11  14   5 102.685 30.2725   8
   3  11  -5 100.329 26.3399   7
   3  11  -8 112.026 33.3246   6
 -11  14   8 137.962 33.9614   5
   3  11  -8 153.071 46.9156   7
 -12  14  -8 431.002 71.2255   7
  14  -2  -8 397.038 58.5807   6
   2  12   5 10.0753 24.3636   5
 -14   2   5-0.85797 18.8718   5
  12 -14   5 10.4930 51.7888   3
  14  -2  -5 37.3270 24.9241   6
   2  12   5 3.83090 29.7427   8
  14  -2  -5 21.7037 22.6183   7
 -14   2   2 928.104 84.1804   4
  14  -2  -2 948.930 84.9471   6
  -2 -12  -2 584.989 94.4849   1
  12 -14   2 711.006 90.1471   2
   2  12   2 889.572 85.4944   8
 -12  14  -2 730.969 86.5657   7
   2  12  -1 479.759 53.6939   6
   2  12  -1 510.212 54.1053   7
  12 -14  -1 608.645 67.7828   3
 -12  14   1 576.650 54.7325   8
 -12  14   1 584.453 54.1313   4
 -14   2  -1 451.445 54.5888   2
   2  12  -4 1263.03 124.176   6
   2  12  -4 1291.74 123.888   7
 -12  14   4 1051.44 123.688   8
  -2 -12   4 1677.77 139.798   2
 -14   2  -4 1696.10 152.255   2
 -12  14   4 1287.93 123.490   4
   2  12  -7 45.4010 29.5842   6
 -12  14   7 8.70626 37.9440   8
 -12  14   7 54.7947 26.9514   5
   2  12  -7 37.5960 38.1066   7
  12 -14 -10 185.373 36.5480   6
   2  12 -10 184.584 43.3899   7
  14  -1  -9 69.8852 37.5046   6
 -13  14  -9 36.3467 50.8162   7
 -14   1   6 38.6604 22.1706   5
   1  13   6-8.46996 36.8761   8
  14  -1  -6 39.2443 28.9179   7
  14  -1  -6 25.5262 31.1391   6
 -14   1   3 29.8195 19.0058   4
  -1 -13  -3 16.3556 38.0404   1
   1  13   3 34.6843 23.6212   8
   1  13   3 39.5324 19.0449   5
  13 -14   3 20.5803 33.1338   2
  14  -1  -3 39.5156 19.5701   6
   1  13   0 5409.43 402.323   1
 -14   1   0 4092.70 393.185   4
 -13  14   0 4711.26 397.746   1
 -13  14   0 4150.13 393.829   4
  13 -14   0 4450.12 395.405   3
  14  -1   0 3753.41 393.313   6
 -14   1  -3 13.7007 49.5377   2
   1  13  -3 45.9259 22.8047   7
   1  13  -3 19.7629 21.2386   6
  13 -14  -3 0.90345 47.9574   1
  -1 -13   3 7.54830 42.1456   2
 -13  14   3 40.3621 21.8697   8
 -13  14   3 39.9989 21.9163   4
 -13  14   6 45.0406 32.4267   8
   1  13  -6 49.9808 26.8442   6
   1  13  -6 25.0914 30.8474   7
   1  13  -9-8.35789 45.5863   7
  13 -14  -9 45.5706 41.2919   6
  14   0 -10 15.0338 23.9047   6
 -14  14 -10 9.53826 39.4402   7
  14   0  -7 231.669 46.2208   6
 -14   0   7 303.169 37.9392   5
   0  14   7 236.370 52.7028   8
   0  14   4 101.526 24.7527   5
   0 -14  -4 61.8536 44.3841   1
  14   0  -4 168.495 24.7011   7
  14 -14   4 103.144 43.4121   3
   0  14   4 115.786 28.7509   8
 -14   0   1 2231.15 211.899   4
  14   0  -1 2597.35 212.942   6
  14   0  -1 2879.30 215.167   1
 -14  14  -1 1659.68 212.661   7
   0  14   1 2152.77 213.009   8
 -14  14   2 3088.18 304.087   4
  14 -14  -2 2648.06 309.928   1
 -14  14   2 3165.65 303.953   8
 -14   0  -2 3556.02 309.667   1
 -14   0  -2 3139.45 308.057   3
   0  14  -2 3136.77 304.607   7
   0  14  -2 3408.93 304.619   6
 -14  14   5 921.461 97.9093   8
   0  14  -5 1022.00 98.3826   7
   0  14  -5 962.641 98.9377   6
   0  14  -8 777.182 91.4151   7
  15 -14 -10 12.8317 29.3958   6
  -1  15 -10 6.28814 36.0803   7
 -15  14   7 383.633 53.2084   8
  -1  15  -7 377.951 55.8015   7
  -1  15  -7 370.194 51.3638   6
 -15  14   4-9.37422 22.5162   8
 -14  -1  -4 15.4327 55.9259   2
  -1  15  -4 7.45586 23.3530   6
  -1  15  -4 0.89572 24.1079   7
 -15  14   1 910.910 90.2369   8
 -15  14   1 936.951 91.4984   4
  14   1  -2 2102.95 184.307   6
  -1  15   2 2016.05 185.084   8
  15 -14   2 1603.04 188.027   2
   1 -15  -2 1259.42 191.716   1
 -15  14  -2 1637.42 185.261   7
 -14  -1   2 2045.44 183.381   4
  14   1  -5 620.965 68.7846   6
 -14  -1   5 714.333 67.2126   5
  -1  15   5 586.830 69.4613   5
  -1  15   5 531.485 71.3383   8
  14   1  -5 735.484 69.0015   7
 -15  14  -8 153.443 57.7845   7
  14   1  -8 82.1322 39.2746   6
 -15  13   8 61.5793 30.9401   5
  -2  15  -8 24.8325 45.7298   7
  15 -13  -8 33.5375 49.2639   6
 -15  13   5 77.0294 26.7419   8
  -2  15  -5 89.9012 28.9508   7
  -2  15  -5 97.2989 29.9825   6
  -2  15  -2 1084.99 101.680   6
 -13  -2  -2 1125.50 108.717   1
  15 -13  -2 742.087 107.381   1
 -13  -2  -2 1029.18 109.951   3
 -15  13   2 1029.69 100.027   8
  13   2  -1 4734.49 410.037   1
  -2  15   1 3847.29 407.604   8
 -15  13  -1 3770.91 409.843   1
  13   2  -1 4175.51 407.403   6
  -2  15   4 1336.42 149.421   8
  -2  15   4 1330.07 148.628   5
  15 -13   4 1402.90 153.801   3
  13   2  -7 34.6557 33.6082   6
  -2  15   7-32.3888 43.3283   8
 -13  -2   7-9.78413 23.1473   5
  13   2  -7 36.6691 35.2195   7
  13   2 -10-4.91998 22.5091   6
 -15  13 -10-17.0708 39.0825   7
  -3  15  -9 69.6620 49.4469   7
  15 -12  -9 6.38863 42.2290   6
 -15  12   6 21.9561 29.4906   8
  -3  15  -6 18.8403 30.4458   7
  -3  15  -6 35.6733 33.1879   6
  -3  15  -3 1077.26 107.929   6
 -12  -3  -3 1043.99 118.610   3
 -15  12   3 1106.21 106.754   8
  12   3   0 778.258 76.5426   6
  -3  15   3 117.725 29.4400   8
  12   3  -3 188.312 26.3324   7
  15 -12   3 146.945 37.7490   3
   3 -15  -3 177.281 66.3724   3
  -3  15   6 38.7195 27.5115   5
  12   3  -6 14.6172 28.0567   6
  12   3  -6 48.7111 29.3778   7
  -3  15   6 62.6616 37.4398   8
 -12  -3   6 21.2250 22.3443   5
  12   3  -9-4.36417 33.8509   6
 -15  12  -9 79.4695 57.3780   7
  -4  15 -10 37.5328 38.9562   7
  15 -11 -10 28.0094 29.3068   6
  -4  15  -7 94.0902 40.5062   7
 -15  11   7 91.7161 30.5602   5
 -15  11   4 29.0671 59.3203   3
  15 -11  -4-47.0286 39.2097   2
 -15  11   4 1.29380 22.8067   4
   4 -15   4-15.6965 44.8722   2
  -4  15  -4-19.9654 25.2542   6
 -15  11   4 9.48775 20.4939   8
  -4  15  -1 301.105 39.6728   7
 -15  11   1 374.275 36.6272   8
 -11  -4   2 771.464 69.7845   2
   4 -15  -2 454.865 87.5723   3
  -4  15   2 465.575 62.5630   8
  -4  15   2 464.703 60.5278   4
  11   4  -2 739.922 60.8586   7
  11   4  -2 654.373 60.8570   6
  -4  15   5 209.067 38.3393   5
  -4  15   5 242.325 43.7359   8
  11   4  -5 327.390 38.4163   7
 -11  -4   5 322.614 34.4748   5
  11   4  -5 298.990 37.6885   6
  11   4  -8 46.3456 35.8647   6
  11   4  -8 36.8016 41.0621   7
  15 -10  -8 227.016 53.3156   6
  -5  15  -8 222.313 51.8014   7
 -15  10   8 200.759 37.6856   5
 -15  10   5 1031.30 116.703   8
  -5  15  -5 1405.00 119.519   6
  -5  15  -2 5619.48 487.065   7
 -10  -5  -2 5008.43 490.347   1
  15 -10  -2 4726.80 489.206   1
 -10  -5  -2 5349.08 491.083   3
 -15  10   2 5081.83 485.681   8
 -15  10   2 5043.51 489.332   3
 -15  10   2 4895.94 486.087   4
  -5  15   1 1923.88 190.304   8
  15 -10   1 1663.68 189.717   2
  10   5  -4 2552.89 221.926   7
   5 -15  -4 1363.51 228.939   1
  -5  15   4 1702.53 222.382   8
 -10  -5   4 2591.40 221.194   5
  10   5  -4 2471.93 221.891   6
  -5  15   7 82.8765 44.3578   8
  -5  15   7 86.3189 31.3759   5
  10   5  -7 92.1830 33.2337   6
  10   5  -7 99.1687 38.7036   7
 -15  10 -10-9.08035 40.8973   7
  15  -9  -9 123.876 43.2544   6
  -6  15  -9 126.024 49.0169   7
 -15   9   6 84.6298 26.0343   5
 -15   9   6 131.788 32.0736   8
  -9  -6  -3 352.083 63.6105   1
  15  -9  -3 429.146 57.8130   2
  -9  -6  -3 505.431 74.9839   3
 -15   9   3 497.674 51.9158   4
  -6  15  -3 433.795 53.7862   7
 -15   9   3 540.610 50.3521   8
  -6  15  -3 451.943 52.2420   6
   9   6   3 500.690 52.5768   8
 -15   9   3 534.531 69.7376   3
   6 -15   3 531.065 69.7388   2
   9   6   0 57.3056 15.5765   6
   9   6   0 81.1413 34.9673   1
  -6  15   0 56.7807 43.8801   1
  15  -9   0 40.9028 8.72720   2
  -6  15   3 196.258 37.4545   8
   9   6  -3 254.456 32.8946   6
  -9  -6   3 290.493 28.8581   5
   6 -15  -3 132.365 50.7168   1
   6 -15  -3 184.904 66.0134   3
   9   6  -3 313.256 33.3330   7
  -6  15   3 232.014 33.6959   4
  -9  -6   3 289.874 47.9655   2
  -6  15   6 35.4638 37.5425   8
  -6  15   6 40.1988 26.1770   5
   9   6  -6 59.5898 26.3545   6
   9   6  -6 75.6692 31.3322   7
   9   6  -9 77.8293 29.9064   6
   9   6  -9 92.1591 41.3820   7
  -7  15 -10 212.066 47.1504   7
  15  -8 -10 216.496 37.0212   6
  -7  15  -7 293.735 54.3065   7
  15  -8  -7 397.174 57.2053   6
 -15   8   7 292.237 43.3268   5
  -7  15  -4 135.128 30.4555   7
 -15   8   4 160.690 61.4326   3
 -15   8   4 147.084 25.1340   4
  15  -8  -4 86.7753 37.0211   2
   8   7   4 124.270 29.9217   8
 -15   8   4 135.778 23.8815   8
  -7  15  -4 132.225 26.5814   6
   7 -15   4 143.291 46.7235   2
 -15   8   1 243.693 28.7725   4
  -7  15  -1 194.408 28.7205   7
  15  -8  -1 180.879 23.3158   2
  -7  15   2 169.394 26.1724   4
   8   7  -2 201.744 25.7782   7
   7 -15  -2 190.696 53.6855   1
  -8  -7   2 215.862 38.6083   2
   7 -15  -2 145.233 59.0299   3
  -7  15   5 63.0128 23.9683   5
   8   7  -5 84.4505 25.2536   7
   8   7  -5 81.6160 23.4064   6
  -8  -7   5 84.9937 18.9596   5
   8   7  -8 34.6567 33.3923   6
  -7  15   8 1.94799 29.6514   5
   8   7  -8 48.2569 44.5195   7
  15  -7  -8 394.406 57.1925   6
 -15   7   8 248.063 41.3950   5
  -8  15  -8 273.433 55.7103   7
   7   8   5 41.2940 31.2315   8
  15  -7  -5 37.3900 36.6248   2
 -15   7   5 74.2919 24.7669   8
 -15   7   2 1468.81 139.450   4
  15  -7  -2 1145.90 140.110   2
   7   8   2 1539.11 139.400   8
 -15   7   2 1580.58 146.364   3
  -8  15  -2 1476.63 140.879   7
 -15   7   2 1516.17 138.597   8
  -7  -8  -2 1191.78 144.991   1
  -8  15   1 1222.39 117.939   4
   7   8  -4 1090.45 106.408   6
  -7  -8   4 1031.41 104.418   5
   7   8  -4 1259.70 106.652   7
   7   8  -7 169.091 36.5603   6
  -8  15   7 190.205 35.3050   5
   7   8  -7 224.974 42.9813   7
   8 -15 -10 44.7331 29.5364   6
 -15   7 -10 68.5164 45.0673   7
  -9  15  -9 78.7407 48.1874   7
  15  -6  -9 61.0945 38.9579   6
   6   9   6 35.4231 36.8865   8
  15  -6  -6 12.4182 36.4029   6
 -15   6   6 26.4355 24.5589   5
 -15   6   3 1999.26 172.849   4
 -15   6   3 2107.51 183.285   3
  -6  -9  -3 1348.81 179.513   1
   9 -15   3 1861.87 183.337   2
 -15   6   3 1898.27 172.050   8
   6   9   3 1764.98 173.275   8
  -6  -9  -3 1917.42 185.820   3
  -9  15  -3 1617.57 174.101   7
  15  -6  -3 1468.80 174.503   2
  -9  15   0 921.035 91.9836   1
  -9  15   0 787.309 80.7692   4
   6   9   0 973.992 92.2638   1
   9 -15  -3 1377.56 178.303   1
   6   9  -3 2053.34 169.235   7
  -9  15   3 1574.62 169.806   8
  -9  15   3 1516.91 168.626   4
   6   9  -3 1851.85 169.294   6
  -6  -9   3 2255.50 179.523   2
   6   9  -6 147.177 32.6976   6
  -9  15   6 193.025 32.7877   5
   6   9  -6 223.343 35.6814   7
   6   9  -9 162.022 33.1434   6
   9 -15  -9 217.637 45.5720   6
   6   9  -9 216.994 49.6095   7
  15  -5 -10 13.3423 27.4974   6
 -10  15 -10 30.3770 41.3639   7
 -15   5   7 44.6512 25.9097   5
  15  -5  -7 60.5267 42.6949   6
  10 -15   4 85.5129 39.3748   2
 -10  15  -4 64.4638 30.4024   7
   5  10   4 98.5589 25.9763   8
 -15   5   4 94.1899 23.4492   4
  -5 -10  -4 103.289 43.2654   1
  -5 -10  -4 119.691 64.5035   3
 -15   5   4 100.472 62.2885   3
 -15   5   4 78.7069 21.3805   8
 -15   5   1 1323.96 127.117   4
  15  -5  -1 1393.28 126.904   6
 -10  15  -1 1182.33 127.924   7
 -10  15   2 151.988 26.9274   4
  10 -15  -2 193.190 52.6450   1
   5  10  -2 245.769 27.8313   7
 -10  15   2 200.722 29.9972   8
  10 -15  -2 181.830 56.2882   3
   5  10  -2 187.849 27.3857   6
   5  10  -5 845.879 92.6502   6
 -10  15   5 968.668 95.2052   8
   5  10  -5 963.159 93.2286   7
   5  10  -8 9.40877 29.4517   6
   5  10  -8 31.3909 45.5524   7
 -10  15   8 22.3182 30.0250   5
  15  -4  -8 48.9230 42.1131   6
 -15   4   8 47.9345 27.4428   5
   4  11   5 1.31335 28.9553   8
 -11  15  -2 188.716 30.2407   7
  15  -4  -2 187.619 24.9514   6
  -4 -11  -2 142.987 44.4572   1
 -15   4   2 191.008 25.3289   4
   4  11   2 168.673 27.2193   8
 -11  15   1 42.7381 18.0715   4
 -11  15   1 40.8481 21.5786   8
   4  11  -1 32.6292 17.3364   6
 -15   4  -1 42.8343 26.2704   3
  11 -15  -1 46.0835 43.6640   3
  11 -15  -4 226.784 58.3218   1
 -11  15   4 272.004 37.1929   8
  -4 -11   4 344.332 55.4420   2
   4  11  -4 222.467 34.4907   6
   4  11  -4 258.264 33.9313   7
 -11  15   4 288.403 35.4170   4
   4  11  -7 16.3648 29.4383   6
 -11  15   7 12.1407 27.7698   5
   4  11  -7 16.8568 37.3644   7
 -11  15   7 3.36558 39.7131   8
  11 -15 -10 26.2300 29.7612   6
   4  11 -10 21.0378 33.7057   7
  15  -3  -9 163.670 41.2329   6
  15  -3  -6 53.0797 34.2526   6
   3  12   6 38.5421 37.0188   8
 -15   3   6 55.6399 24.1429   5
  15  -3  -3 2551.29 227.839   6
   3  12   3 2267.54 227.921   8
   3  12   3 2277.79 227.359   5
  -3 -12  -3 1548.44 232.579   1
  -3 -12  -3 2490.68 240.192   3
 -12  15  -3 2177.18 229.334   7
  12 -15   3 2503.23 235.447   2
 -15   3   3 2685.41 227.296   4
  15  -3   0 3328.39 357.506   6
 -12  15   0 4385.34 363.119   1
   3  12   0 4840.01 366.062   1
 -15   3   0 3910.55 357.830   4
 -12  15   0 3869.09 358.091   4
 -15   3  -3 2133.05 196.164   2
  12 -15  -3 1470.65 189.876   1
  -3 -12   3 2505.04 194.201   2
 -12  15   3 1941.97 180.688   8
   3  12  -3 1797.42 180.740   6
   3  12  -3 1999.85 180.614   7
 -12  15   3 1694.50 179.918   4
   3  12  -6 1459.05 148.588   6
 -12  15   6 1373.50 148.105   5
 -12  15   6 1519.73 149.713   8
   3  12  -6 1679.26 149.303   7
  12 -15  -9 24.7145 42.0013   6
   3  12  -9 21.9305 44.8496   7
  15  -2 -10 54.5048 26.1894   6
  15  -2  -7 861.351 93.1159   6
   2  13   7 642.157 94.5310   8
 -15   2   7 909.553 88.0710   5
 -13  15  -7 937.633 99.5503   7
   2  13   4 1747.08 161.105   8
   2  13   4 1794.83 160.512   5
 -15   2   1 115.107 18.5400   4
   2  13   1 122.001 19.8628   8
  15  -2  -1 116.129 19.1286   6
  15  -2  -1 67.1752 16.6723   1
 -13  15  -1 86.4783 21.2354   7
 -13  15   2 795.142 77.6857   4
 -15   2  -2 598.431 85.0908   3
 -15   2  -2 808.336 88.8421   2
   2  13  -2 797.098 78.0670   7
  13 -15  -2 623.000 92.7544   1
 -13  15   2 806.813 78.2381   8
   2  13  -2 786.721 78.1523   6
   2  13  -5 72.9253 25.3398   6
 -13  15   5 60.2181 29.2437   8
   2  13  -5 69.9317 27.0333   7
   2  13  -8 101.543 32.5198   6
 -13  15   8 85.6659 32.8295   5
   2  13  -8 124.353 47.0380   7
 -14  15  -8 509.642 75.9559   7
  15  -1  -8 458.681 62.7489   6
   1  14   5 326.073 44.6768   5
   1  14   5 243.148 46.1798   8
  14 -15   2 1160.92 127.588   2
  15  -1  -2 1371.66 121.937   6
   1  14   2 1268.28 122.455   8
 -15   1   2 1379.54 121.200   4
 -14  15  -2 1045.86 123.114   7
 -14  15   1 8402.69 756.114   4
 -14  15   1 8189.93 756.096   8
 -15   1  -1 7033.27 756.534   2
   1  14  -4 79.9177 24.8895   7
 -14  15   4 72.6181 24.4368   4
   1  14  -4 44.9405 24.1233   6
 -15   1  -4 104.486 66.4381   2
  14 -15  -4 73.9494 49.0606   1
 -14  15   4 53.2245 24.3591   8
   1  14  -7 38.6031 30.7500   6
 -14  15   7 13.0289 37.2800   8
   1  14  -7-12.2487 39.4532   7
   1  14 -10 25.8906 34.2226   7
  14 -15 -10 35.4681 30.1237   6
 -15  15  -9 87.5747 51.0903   7
  15   0  -9 56.4169 35.4762   6
   0  15   6 189.309 43.1979   8
  15   0  -6 227.023 39.0522   6
 -15   0   6 228.432 32.5757   5
  15 -15   3 56.3466 31.5102   2
   0  15   3 48.3401 24.2450   8
   0  15   3 34.1904 18.6493   5
   0 -15  -3 15.5648 41.7939   1
  15   0  -3 71.6698 19.0885   6
 -15  15  -3 48.4975 30.3634   7
 -15   0   3 70.3565 19.0076   4
  15   0   0 1531.28 160.162   6
 -15   0   0 1683.96 159.875   4
   0  15   0 2172.21 173.417   1
  15 -15   0 1758.24 162.374   3
 -15  15   0 1692.67 161.233   4
   0 -15   3 1626.45 145.061   2
 -15  15   3 1344.79 129.951   4
 -15   0  -3 1586.57 146.800   2
  15 -15  -3 1031.64 139.181   1
 -15  15   3 1247.08 129.513   8
   0  15  -3 1365.56 130.378   7
   0  15  -3 1345.15 130.724   6
   0  15  -6 119.482 32.3374   6
   0  15  -6 141.264 35.1979   7
 -15  15   6 106.683 34.4911   8
   0  15  -9 72.3470 44.9334   7
  15 -15  -9 50.3005 42.7410   6
  16 -15  -8 25.6539 48.0000   6
  -1  16  -8 4.66251 44.4518   7
  -1  16  -5 95.7871 30.7236   6
 -16  15   5 111.746 29.0746   8
  -1  16  -5 89.4400 30.7360   7
  16 -15  -2 303.480 57.9836   1
 -16  15   2 419.698 45.7824   4
 -15  -1  -2 428.625 61.6696   3
  -1  16  -2 395.212 45.3320   7
 -15  -1  -2 407.430 63.2286   1
 -16  15   2 420.391 44.5361   8
 -15  -1   1 911.266 89.8456   4
  15   1  -1 1083.89 91.5966   6
 -16  15  -1 1039.73 98.6936   1
  15   1  -1 1221.44 94.2726   1
  -1  16   1 1034.14 92.4334   8
  -1  16   4 30.1263 28.9298   8
  -1  16   4 40.4160 21.3775   5
  16 -15   4 35.7065 40.8350   3
  15   1  -7 6.73943 35.3158   6
 -15  -1   7 27.8599 23.2399   5
  -1  16   7 40.0872 43.6185   8
 -16  15 -10-17.0557 38.1200   7
  16 -14  -9-13.1062 41.6151   6
  -2  16  -9 28.8888 44.2262   7
 -16  14   9 37.2630 29.5809   5
  -2  16  -6-3.64010 31.7306   6
 -16  14   6-16.6952 30.9145   8
  -2  16  -6 23.0812 32.3053   7
 -14  -2  -3 17.0822 50.6994   1
  -2  16  -3-6.81176 22.9593   7
  -2  16  -3 4.24270 22.9680   6
 -16  14   3-5.34387 20.2805   8
 -14  -2  -3 4.71655 43.3012   3
   2 -16   3 10.4967 41.6869   2
  16 -14  -3-15.0774 42.6482   1
 -16  14   0 542.812 52.8831   4
  14   2   0 462.887 49.6059   6
  14   2  -3 377.165 42.7143   6
   2 -16  -3 224.700 60.1112   1
  16 -14   3 365.200 50.2849   3
   2 -16  -3 321.479 77.2826   3
  -2  16   3 317.587 46.5025   8
  -2  16   3 329.509 42.8056   5
 -14  -2   3 391.635 41.4938   4
  -2  16   6 52.8109 39.0670   8
  14   2  -6 50.0403 28.4067   6
 -14  -2   6 59.0507 23.0751   5
  -2  16   6 36.5476 26.7494   5
  14   2  -6 62.5354 30.3844   7
  14   2  -9 25.1686 33.4932   6
 -16  14  -9 45.9790 53.2885   7
  16 -13 -10 13.6287 29.6969   6
  -3  16 -10 49.1808 37.5062   7
  -3  16  -7 362.644 57.1023   7
 -16  13   7 425.187 51.5006   5
  -3  16  -4 1057.40 100.497   6
  -3  16  -4 970.381 99.5780   7
 -13  -3  -4 765.739 114.201   2
 -16  13   4 998.861 98.1927   8
 -16  13   1 5733.34 546.066   8
  13   3  -2 5430.29 480.349   6
  16 -13   2 3765.72 481.889   2
  -3  16   2 4504.04 480.526   8
 -13  -3   2 5184.71 479.328   4
 -13  -3   5 114.339 22.3846   5
  -3  16   5 106.611 35.5597   8
  13   3  -5 138.688 28.5104   7
  -3  16   5 111.852 27.6202   5
  13   3  -5 103.015 26.9201   6
  13   3  -8 31.5925 37.0844   6
 -16  12   8 146.026 36.8725   5
  -4  16  -8 172.920 50.8102   7
  16 -12  -8 255.386 54.0682   6
  -4  16  -5 545.562 57.5428   6
 -16  12   5 554.025 54.7208   4
 -16  12   5 397.652 52.8412   8
  -4  16  -5 427.673 54.1855   7
  16 -12  -2 28.5456 34.0908   1
 -12  -4  -2 64.2742 40.9956   1
 -16  12   2 70.0075 19.3363   8
 -16  12  -1 28.4971 26.6585   1
  12   4  -1 45.6422 18.2225   6
  -4  16   1 47.2170 23.2673   8
  12   4  -1 53.7347 34.3008   1
  16 -12   1 24.0069 18.2160   2
  12   4  -4 346.474 38.5519   7
  -4  16   4 273.288 42.9031   8
  -4  16   4 262.374 38.6750   5
 -12  -4   4 352.920 35.6483   5
  12   4  -4 310.776 37.6596   6
  12   4  -7 38.6000 33.2022   6
  -4  16   7 39.9369 28.6190   5
  -4  16   7 42.6689 44.6320   8
 -16  12 -10 50.1549 40.4546   7
  -5  16  -9 110.625 51.5340   7
  16 -11  -9 137.775 44.1684   6
  -5  16  -6 647.116 75.2558   7
 -16  11   6 716.917 74.4985   8
 -16  11   3 922.816 92.1155   4
 -11  -5  -3 805.548 105.244   3
  -5  16  -3 911.584 93.5978   6
  11   5   3 884.326 92.7906   8
 -11  -5  -3 805.135 102.048   1
 -16  11   3 976.043 91.1835   8
   5 -16   3 1130.97 108.444   2
 -16  11   3 937.502 106.256   3
  11   5   0 22.6382 14.8855   6
  -5  16   0 58.4661 44.1309   1
   5 -16  -3 308.326 66.3599   1
   5 -16  -3 408.460 80.4742   3
 -11  -5   3 449.099 46.1647   5
  11   5  -3 549.875 49.4588   7
  -5  16   3 388.892 52.2024   8
 -11  -5   6 11.9994 19.9477   5
  11   5  -6-22.2177 26.5326   6
  -5  16   6 11.2175 36.6450   8
  11   5  -6 11.6607 29.7089   7
  -5  16   6 5.98358 25.7283   5
  11   5  -9 229.992 40.0570   6
 -16  11  -9 347.615 63.9917   7
  16 -10 -10 193.115 36.1827   6
  -6  16 -10 209.384 44.2472   7
 -16  10   7 108.672 29.6296   5
  16 -10  -7 97.6447 48.8479   6
  -6  16  -7 103.791 41.0337   7
 -16  10   4 511.086 50.2785   4
   6 -16   4 382.632 67.6951   2
 -16  10   4 527.962 77.1556   3
  10   6   4 405.724 52.4339   8
 -16  10   4 454.683 48.0834   8
  -6  16  -4 452.005 52.3439   6
  16 -10  -4 342.604 59.7251   2
 -16  10   1 1822.57 168.065   4
  -6  16  -1 1659.72 167.966   7
 -10  -6   2 3093.15 257.095   2
  10   6  -2 3033.13 251.462   7
   6 -16  -2 2013.14 259.786   1
   6 -16  -2 2380.39 260.903   3
  -6  16   2 2343.21 250.847   4
  10   6  -5 2317.04 240.769   6
  -6  16   5 2224.26 242.138   8
  -6  16   5 2132.09 241.158   5
 -10  -6   5 2754.83 240.113   5
  10   6  -5 2930.92 241.392   7
  10   6  -8 44.6916 32.9846   6
  10   6  -8 93.3682 42.0500   7
  16  -9  -8 123.926 49.5058   6
 -16   9   8 94.8800 31.4808   5
  -7  16  -8 134.051 49.1985   7
   9   7   5 225.058 41.2034   8
 -16   9   2 84.3295 21.7361   4
 -16   9   2 67.7761 42.4710   3
  16  -9  -2 67.7137 21.2840   2
 -16   9   2 88.7388 17.2655   8
  -9  -7  -2 55.7780 35.7603   1
  -7  16  -2 45.7170 24.6150   7
   9   7  -1 16.7764 17.4887   6
 -16   9  -1 7.75663 19.1013   1
  -7  16   1 6.17741 15.1016   4
   9   7  -4 50.2430 21.4673   6
   7 -16  -4 22.4943 47.8432   1
  -9  -7   4 58.1179 14.6673   5
   9   7  -4 67.0411 23.0905   7
  -7  16   7 3.80207 27.8564   5
   9   7  -7 18.0411 29.9890   6
   9   7  -7-21.8240 36.9781   7
 -16   9 -10 57.5753 42.8450   7
  -8  16  -9 92.6761 49.6305   7
  16  -8  -9 80.9058 40.9725   6
  16  -8  -6 125.928 42.3282   6
 -16   8   6 124.890 28.0283   5
 -16   8   3 1332.27 125.729   4
   8 -16   3 1591.59 140.136   2
  16  -8  -3 1083.28 128.774   2
  -8  -8  -3 1034.86 134.290   1
 -16   8   3 1286.13 124.595   8
  -8  -8  -3 1280.56 140.131   3
   8   8   3 1338.32 126.056   8
 -16   8   3 1389.01 137.659   3
  -8  16  -3 1307.03 127.608   7
   8   8   0 650.319 66.5707   6
  -8  16   0 647.743 65.4675   4
  -8  16   0 738.497 79.4661   1
 -16   8   0 618.413 66.7681   4
   8 -16  -3 22.0198 62.0526   3
  -8  16   3 18.9184 20.8183   4
   8 -16  -3 45.1077 46.1571   1
  -8  -8   3 41.7739 36.1783   2
   8   8  -3 20.7982 20.5248   6
   8   8  -3 34.5718 20.7701   7
  -8  -8   3 23.4926 10.7364   5
   8   8  -6 23.8518 30.3044   7
  -8  16   6 28.1108 26.0682   5
   8   8  -6 19.6251 26.3758   6
   8   8  -9 61.4187 43.3254   7
   8   8  -9 68.5196 28.3932   6
  16  -7 -10 129.790 32.5695   6
  -9  16 -10 108.774 41.4681   7
  16  -7  -7 3.64383 44.5151   6
 -16   7   7-6.08585 25.5669   5
   9 -16   4 2174.37 207.734   2
  -7  -9  -4 1264.64 202.711   1
 -16   7   4 2309.70 194.798   4
  16  -7  -4 1506.46 198.110   2
  -7  -9  -4 2020.94 207.929   3
   7   9   4 1683.13 195.478   8
 -16   7   4 2276.88 194.554   8
 -16   7   4 2537.94 209.182   3
  -9  16  -4 2083.98 196.737   7
  -9  16  -1 49.2933 20.7843   7
  16  -7  -1 32.2114 14.6602   6
 -16   7   1 47.0265 19.3808   4
 -16   7   1 44.0597 30.1601   3
   7   9  -2 168.541 26.5000   6
   9 -16  -2 171.687 57.3265   3
   9 -16  -2 109.981 53.6392   1
   7   9  -2 197.883 25.3798   7
  -9  16   2 139.439 25.0295   4
   7   9  -5 22.4702 22.6487   6
   7   9  -5 40.9046 24.9082   7
   7   9  -8 18.8575 30.9188   6
  -9  16   8 53.9047 30.9183   5
   7   9  -8 82.9001 44.8208   7
  16  -6  -8 39.6549 44.8656   6
 -16   6   8 42.3588 27.8413   5
   6  10   5 156.110 35.9727   8
 -10  16  -5 167.193 37.0205   7
  16  -6  -2 4126.67 376.995   6
 -10  16  -2 3634.83 377.875   7
  -6 -10  -2 3110.54 382.201   1
   6  10   2 4035.44 376.873   8
 -16   6   2 4082.65 376.775   4
 -10  16   1 1563.51 155.365   4
 -10  16   1 1710.55 156.753   8
  10 -16  -4 579.438 95.4913   1
  -6 -10   4 900.763 93.6330   2
 -10  16   4 838.085 82.1610   8
 -10  16   4 784.511 80.4859   4
   6  10  -4 891.910 80.6269   7
   6  10  -4 695.229 79.9317   6
   6  10  -7 145.122 35.3018   6
 -10  16   7 173.595 34.8706   5
 -10  16   7 211.010 46.3925   8
   6  10  -7 270.766 44.7875   7
 -16   6 -10 4.47585 43.5845   7
  10 -16 -10 34.3080 30.1566   6
  16  -5  -9 68.4916 38.8346   6
  16  -5  -6 1030.20 105.408   6
 -16   5   6 1069.14 101.537   5
   5  11   6 860.681 104.985   8
 -11  16  -6 999.659 106.668   7
 -11  16  -3 249.112 40.8868   7
  11 -16   3 281.983 51.4418   2
  16  -5  -3 314.095 36.3393   6
  -5 -11  -3 152.338 50.0286   1
 -16   5   3 327.682 34.3428   8
 -16   5   3 337.794 36.1725   4
   5  11   3 309.186 37.7313   8
  -5 -11  -3 294.340 69.1465   3
 -11  16   0 57.0048 19.0320   4
 -11  16   0 104.475 38.3908   1
   5  11   0 70.8195 40.6917   1
 -16   5   0 50.6471 19.2358   4
  -5 -11   3 706.422 77.1610   2
 -11  16   3 603.321 63.8694   8
  11 -16  -3 446.638 78.9090   1
 -11  16   3 560.436 61.5043   4
   5  11  -3 570.315 62.3170   6
   5  11  -3 651.091 61.9374   7
 -11  16   6 59.9528 29.3235   5
   5  11  -6 32.5590 27.3006   6
 -11  16   6 47.6638 36.6279   8
   5  11  -6 80.3944 31.2856   7
   5  11  -9 115.559 46.4725   7
  11 -16  -9 151.860 44.2183   6
  16  -4 -10 29.4019 27.2521   6
 -12  16  -7-22.8948 45.8036   7
 -16   4   7 17.3492 25.3601   5
  16  -4  -7 77.7125 41.4848   6
  12 -16   4 405.747 59.5244   2
   4  12   4 309.450 48.0144   8
  16  -4  -4 484.413 46.3797   6
 -16   4   4 470.257 45.9638   4
 -12  16  -4 423.104 51.6709   7
  16  -4  -1 3866.93 357.391   6
 -16   4   1 3803.69 357.239   4
   4  12   1 3985.08 357.219   8
 -12  16  -1 3144.08 357.805   7
 -12  16  -1 3812.15 364.030   1
 -12  16   2 703.003 68.2512   4
   4  12  -2 618.006 68.7879   6
  12 -16  -2 525.386 85.1264   1
  12 -16  -2 757.296 88.0845   3
 -12  16   2 630.076 69.1066   8
   4  12  -2 729.556 68.1923   7
   4  12  -5 138.139 29.5451   7
 -12  16   5 142.286 33.5890   8
   4  12  -5 113.275 27.2118   6
   4  12  -8 22.9898 43.4523   7
   4  12  -8-7.65822 29.4179   6
 -12  16   8-10.0112 29.0263   5
 -13  16  -8 89.9031 51.5807   7
 -16   3   8 34.1220 25.3932   5
  16  -3  -8 55.1610 40.7337   6
 -13  16  -5 312.813 46.0840   7
   3  13   5 255.655 41.6739   8
   3  13   2 233.140 32.9022   8
 -16   3   2 286.380 30.2755   4
  16  -3  -2 276.143 30.6326   6
 -13  16  -2 202.442 34.5877   7
 -13  16   1 9395.90 897.594   8
   3  13  -1 10457.7 904.324   1
 -16   3  -1 9564.25 898.380   3
 -13  16   1 9159.93 897.278   4
  13 -16  -1 9498.27 900.284   3
   3  13  -1 9445.58 898.001   6
   3  13  -4 446.003 50.6945   6
 -16   3  -4 528.739 84.5932   2
  13 -16  -4 383.780 72.7172   1
   3  13  -4 471.809 51.1969   7
 -13  16   4 442.042 51.8299   8
 -13  16   4 459.555 50.6221   4
 -13  16   7 683.544 82.2754   8
   3  13  -7 706.345 78.1693   6
   3  13  -7 832.425 84.0178   7
 -13  16   7 698.089 78.7439   5
   3  13 -10 45.9076 32.1978   7
  13 -16 -10 30.6682 29.9457   6
  16  -2  -9 19.7144 36.8135   6
 -14  16  -9 10.0545 46.5225   7
 -14  16  -6 111.213 44.6438   7
   2  14   6 56.5909 39.1349   8
  16  -2  -6 89.1955 34.6133   6
 -16   2   6 121.133 25.3635   5
  -2 -14  -3 14.3479 39.8957   1
 -14  16  -3 32.8379 30.2404   7
   2  14   3 31.3402 23.4201   8
 -16   2   3 60.3016 19.7390   4
  16  -2  -3 31.3720 18.7447   6
   2  14   3 16.5639 16.7583   5
  14 -16   3 17.9230 33.8562   2
  16  -2   0 1208.81 121.952   6
 -14  16   0 1254.27 128.852   1
 -16   2   0 1293.88 122.232   4
 -14  16   0 1223.97 123.086   4
  14 -16   0 1340.21 127.719   3
   2  14   0 1609.34 135.945   1
 -14  16   3 402.433 47.3148   4
   2  14  -3 433.867 47.6651   7
 -14  16   3 400.200 47.9394   8
   2  14  -3 436.922 48.0650   6
  -2 -14   3 483.134 65.7479   2
  14 -16  -3 316.264 67.3739   1
 -16   2  -3 521.852 77.9087   2
   2  14  -6 8.27049 26.4656   6
 -14  16   6 12.7648 33.3894   8
 -14  16   6 4.97334 24.6803   5
   2  14  -6 18.7805 30.3750   7
  14 -16  -9 47.3191 42.5235   6
   2  14  -9-12.3125 46.0475   7
  16  -1 -10 25.6237 24.6374   6
 -15  16 -10 52.3943 39.3506   7
   1  15   7 275.520 55.6259   8
 -16   1   7 342.647 42.4050   5
  16  -1  -7 342.887 52.0643   6
 -15  16  -7 372.254 62.2641   7
 -15  16  -4 97.5017 35.5089   7
   1  15   4 72.7790 29.1061   8
  15 -16   4 71.3922 44.1498   3
   1  15   4 128.039 23.1206   5
 -15  16  -1 47.9519 37.1396   1
 -15  16  -1 48.4260 20.4682   7
   1  15   1 53.5646 20.4708   8
  16  -1  -1 83.1376 17.4224   6
 -16   1   1 63.7459 16.2261   4
   1  15  -2 930.969 87.8476   6
 -15  16   2 933.780 87.1362   4
 -16   1  -2 858.814 97.1334   2
   1  15  -2 830.280 87.0676   7
 -16   1  -2 748.436 95.9099   3
  15 -16  -2 680.361 98.3336   1
 -16   1  -2 741.039 95.1083   1
 -15  16   2 932.530 86.9744   8
   1  15  -5 1041.28 106.201   6
 -15  16   5 1003.56 105.902   8
   1  15  -5 1094.24 106.218   7
   1  15  -8 16.6198 44.2172   7
 -16  16  -8-27.1430 55.1054   7
  16   0  -8 13.8967 38.7039   6
   0  16   5 190.233 37.2079   8
 -16   0   5 167.993 26.5460   5
   0  16   5 142.121 29.7342   5
 -16   0   2 51.1913 16.3573   4
 -16  16  -2 31.2313 24.4200   7
  16 -16   2 31.6192 30.6915   2
   0  16   2 22.4971 23.7542   8
   0  16   2 24.0189 13.9376   5
  16   0  -2 38.8876 18.1874   6
 -16  16   1 689.653 72.8845   8
   0  16  -1 920.565 92.4390   1
 -16  16   1 745.011 74.2128   4
   0  16  -4-0.31642 24.4172   6
 -16   0  -4 27.2512 68.5820   2
 -16  16   4-20.0316 24.3930   8
   0  16  -4 26.1457 24.1053   7
 -16  16   4 17.5133 25.3043   4
  16 -16  -4-19.2429 48.6491   1
   0  16  -7 513.738 67.4296   7
 -16  16   7 455.295 65.3845   8
   0  16  -7 624.910 64.3793   6
   0  16 -10 23.9597 31.3225   7
  16 -16 -10 10.8020 29.1779   6
  -1  17  -9 107.190 44.8842   7
 -17  16   6 442.631 54.7469   8
  -1  17  -6 426.897 54.8257   7
  -1  17  -6 420.455 54.5245   6
 -17  16   3 631.277 70.1690   4
  -1  17  -3 741.558 72.2654   6
   1 -17   3 712.748 86.6611   2
  17 -16  -3 488.601 82.3661   1
 -16  -1  -3 762.321 91.2901   2
 -17  16   3 660.771 69.1593   8
 -16  -1  -3 749.016 97.5953   1
  -1  17  -3 701.407 70.7791   7
 -16  -1   0 3335.80 389.743   2
  16   1   0 4045.66 389.544   6
 -17  16   0 4604.19 390.253   4
 -16  -1   0 4192.44 388.965   4
  -1  17   3 905.089 96.0454   8
  -1  17   3 886.853 93.4572   5
  16   1  -3 1051.51 93.9838   6
 -17  16  -3 878.624 97.9811   7
  17 -16   3 955.291 97.9310   3
 -16  -1   3 1048.07 93.0186   4
 -16  -1   6 54.1104 21.7542   5
  16   1  -6 20.2193 29.7834   6
  -1  17   6 14.6302 26.1032   5
  -1  17   6 26.5869 38.2938   8
  16   1  -9 71.0754 34.6949   6
 -17  16  -9 103.813 50.5288   7
  17 -15 -10 75.6403 30.6152   6
  -2  17 -10 63.5502 33.2151   7
 -17  15   7 59.0458 37.5671   8
  -2  17  -7 46.1206 38.4138   7
  -2  17  -4 1020.12 100.432   6
  17 -15  -4 894.726 113.281   1
  -2  17  -4 933.833 99.4652   7
 -15  -2  -4 1212.72 125.195   2
 -17  15   4 995.684 98.7935   8
 -17  15   1 335.057 39.8729   4
  -2  17  -1 416.751 64.9541   1
 -17  15   1 328.172 37.1574   8
  15   2  -2 216.941 26.1356   6
 -15  -2   2 213.571 23.7441   4
  -2  17   2 149.630 31.0288   8
 -17  15  -2 122.595 30.1536   7
  17 -15   2 130.443 32.5062   2
  -2  17   5-12.0809 33.3071   8
  -2  17   5 18.7632 24.6107   5
  15   2  -5-3.57956 26.5015   7
 -15  -2   5 33.9429 18.5063   5
  15   2  -5 9.43307 24.6062   6
 -17  15  -8 54.6435 58.6624   7
  15   2  -8 23.3339 38.0503   6
 -17  14   8 29.0758 31.1092   5
  17 -14  -8-36.5480 49.6915   6
  -3  17  -8-0.59561 44.6218   7
  -3  17  -5 66.3382 28.3720   7
  -3  17  -5 77.1848 32.2557   6
 -17  14   5 53.4708 26.6288   8
 -14  -3  -2 1289.63 130.332   3
 -14  -3  -2 1188.25 130.458   1
 -17  14   2 1328.07 118.991   8
  17 -14  -2 853.395 125.275   1
  14   3  -1 211.800 36.5201   1
 -17  14  -1 208.663 34.7258   1
  17 -14   1 143.129 28.2226   2
  -3  17   1 171.332 29.7318   8
 -14  -3   1 201.872 32.1948   2
  14   3  -1 156.293 25.0080   6
  17 -14   4 25.4328 42.0606   3
 -14  -3   4 48.8218 16.8084   5
  -3  17   4 30.0684 21.2699   5
  -3  17   4 5.71625 29.4252   8
  14   3  -4 36.1432 22.1455   7
  14   3  -7 9.82968 33.6094   6
  -3  17   7 21.7085 44.0165   8
 -17  14 -10 60.2142 38.7745   7
  17 -13  -9 119.468 44.7992   6
 -17  13   9 64.3798 31.3450   5
  -4  17  -9 82.8389 45.0445   7
 -17  13   6 407.837 55.5956   8
  -4  17  -6 414.685 56.3482   7
  -4  17  -6 578.372 60.5514   6
  17 -13  -3-18.8149 39.3261   1
 -13  -4  -3 26.9780 47.6496   1
 -17  13   3 9.61067 19.9364   8
 -13  -4  -3-19.1583 46.2924   3
 -17  13   0 1900.74 169.322   8
  13   4   0 1618.80 169.318   6
  13   4  -3 1361.56 116.882   7
   4 -17  -3 969.618 135.419   3
  -4  17   3 987.345 118.446   8
  13   4  -6 346.668 48.6513   6
  13   4  -6 461.388 50.5316   7
  -4  17   6 329.348 54.3571   8
 -13  -4   6 436.869 44.7194   5
  -4  17   6 329.691 48.0921   5
 -17  13  -9 500.303 70.6048   7
  13   4  -9 349.775 51.3997   6
  -5  17 -10 8.45986 37.6332   7
  17 -12 -10 1.10730 28.6360   6
  -5  17  -7 154.858 40.9711   7
  17 -12  -7 123.518 51.7392   6
 -17  12   7 109.819 31.6562   5
 -12  -5  -4 1114.06 153.305   1
  17 -12  -4 1143.50 149.142   2
 -17  12   4 1270.48 139.663   8
 -17  12   4 1513.81 140.792   4
 -17  12   1 3489.63 342.420   4
  -5  17  -1 4199.20 352.544   1
 -17  12   1 3741.41 341.648   8
  -5  17  -1 3280.68 342.612   7
  -5  17   2 1.19624 17.9160   4
   5 -17  -2 0.94944 45.8649   1
 -12  -5   2 13.8445 30.6357   2
  12   5  -2 6.54568 18.7522   6
  -5  17   2 13.8661 24.2986   8
   5 -17  -2 36.0907 64.5166   3
  12   5  -5 1085.42 103.710   6
  -5  17   5 796.799 103.718   5
 -12  -5   5 1094.94 102.175   5
  -5  17   5 921.986 106.441   8
  12   5  -5 1225.13 104.299   7
  12   5  -8 0.95553 38.3526   7
  12   5  -8-24.1308 34.5580   6
  17 -11  -8 19.8146 47.3193   6
 -17  11   8 4.40635 29.2241   5
  -6  17  -8 50.3244 44.6982   7
 -17  11   5 272.095 40.2074   8
  -6  17  -5 350.963 46.1582   6
 -17  11   5 309.104 41.4572   4
 -17  11   2 467.827 49.1654   4
 -17  11   2 453.570 47.0949   8
 -11  -6  -2 468.741 62.7177   1
  -6  17  -2 480.159 51.1547   7
  17 -11  -2 359.511 54.6144   1
  -6  17   1 1116.28 112.481   4
  11   6  -1 1200.23 113.555   6
 -17  11  -1 1210.12 114.483   1
  -6  17   1 1055.26 114.596   8
  11   6  -1 1461.67 121.492   1
  11   6  -4 321.805 40.5860   6
  11   6  -4 408.856 41.7205   7
 -11  -6   4 367.113 37.7027   5
  -6  17   4 268.392 46.2095   8
  11   6  -7-4.13007 34.9441   7
  11   6  -7-12.7277 32.2364   6
  -6  17   7 6.57979 28.5513   5
  -6  17   7-13.3714 44.5399   8
 -17  11 -10 47.7606 40.0511   7
  17 -10  -9 54.9975 41.3975   6
  -7  17  -9 100.374 48.5573   7
 -17  10   6 168.248 35.5420   8
  10   7   3 80.2910 25.2235   8
  17 -10  -3 52.3014 29.6376   2
 -17  10   3 103.774 23.9702   4
 -10  -7  -3 68.5763 40.7762   1
   7 -17   3 83.7658 46.0850   2
 -10  -7  -3 72.6024 55.7204   3
 -17  10   3 111.172 20.5877   8
  -7  17  -3 93.2478 28.3930   7
 -17  10   3 113.459 52.2648   3
 -17  10   0 101.808 23.5580   4
  -7  17   0 98.9436 16.6568   4
  -7  17   0 104.865 45.7329   1
  10   7   0 80.1711 19.3786   6
  -7  17   3 2638.27 307.252   8
 -10  -7   3 3295.24 305.154   5
  10   7  -3 3246.24 306.848   6
   7 -17  -3 2256.60 314.288   1
   7 -17  -3 2985.79 316.942   3
  10   7  -3 4002.03 306.898   7
 -10  -7   3 3962.73 314.741   2
  -7  17   3 2824.60 306.123   4
  -7  17   6 52.1717 37.2839   8
  -7  17   6 34.5704 26.4271   5
  10   7  -6 23.8039 28.0376   6
  10   7  -6 73.4969 31.4016   7
  10   7  -9 16.3110 27.2827   6
  17  -9 -10-5.12392 28.5107   6
  -8  17 -10-14.6198 36.9894   7
  17  -9  -7 673.546 79.2516   6
 -17   9   7 590.684 67.6603   5
 -17   9   4 4339.53 411.383   8
  -9  -8  -4 3302.35 419.872   1
  -9  -8  -4 4360.70 421.316   3
   9   8   4 4237.83 412.482   8
 -17   9   4 4887.29 421.325   3
 -17   9   4 4728.42 411.866   4
  -8  17  -4 4270.94 412.778   7
  17  -9  -4 3571.48 416.837   2
 -17   9   1 267.621 31.9902   4
  -8  17  -1 304.975 55.8865   1
  -8  17  -1 213.604 31.4603   7
  -9  -8   2 3309.45 293.373   2
   9   8  -2 3753.79 288.695   7
   8 -17  -2 2705.47 296.740   3
   8 -17  -2 2339.86 296.743   1
  -8  17   2 2635.78 287.613   4
  -8  17   5 434.368 57.4484   5
   9   8  -5 515.008 57.7441   6
   9   8  -8 0.85096 31.3340   6
  -8  17   8 9.07077 29.1590   5
   9   8  -8 24.1093 40.8781   7
  17  -8  -8 289.802 54.5816   6
 -17   8   8 211.621 37.6025   5
  -9  17  -5 31.1540 29.8166   7
   8   9   5 61.4283 31.9286   8
 -17   8   5 36.3985 25.8144   8
 -17   8   2 5715.93 556.206   4
  -8  -9  -2 4711.26 561.325   1
   8   9   2 6283.56 556.196   8
 -17   8   2 6155.55 559.551   3
 -17   8   2 5843.20 555.643   8
  -9  17  -2 5539.49 557.104   7
   8   9  -1 283.094 33.0827   6
  -9  17   1 244.529 30.9141   4
   8   9  -4 272.437 35.9754   6
   8   9  -4 292.067 35.9320   7
   8   9  -7 6.72964 32.0558   6
   8   9  -7 23.9266 37.1479   7
  -9  17   7-1.40863 29.0069   5
 -17   8 -10 82.5700 44.4651   7
  17  -7  -9 339.868 53.2171   6
 -10  17  -6 59.3359 38.3238   7
 -17   7   6 36.7917 24.1130   5
   7  10   6 44.7419 38.9106   8
  17  -7  -6 60.5134 37.3559   6
 -17   7   3 354.365 38.9171   8
   7  10   3 312.280 42.0288   8
  -7 -10  -3 227.042 55.5358   1
 -17   7   3 405.352 40.8922   4
  10 -17   3 426.734 60.6138   2
 -17   7   3 425.008 66.7074   3
 -10  17  -3 369.634 45.8142   7
  -7 -10  -3 343.525 72.1435   3
 -17   7   0 43.3026 20.4246   4
 -10  17   0 14.7908 16.3787   4
 -10  17   0 50.7089 39.5725   1
   7  10   0 31.5207 39.7114   1
   7  10  -3 1231.91 114.098   6
  -7 -10   3 1438.06 125.030   2
  10 -17  -3 859.370 127.076   1
 -10  17   3 956.795 115.124   8
   7  10  -3 1390.73 114.087   7
 -10  17   3 1028.26 113.245   4
 -10  17   6 0.43041 26.4089   5
   7  10  -6 29.1166 26.3516   6
   7  10  -6 36.4328 31.1681   7
  10 -17  -9 0.54483 39.9467   6
   7  10  -9 32.7867 41.6529   7
  17  -6 -10 29.3823 28.2270   6
 -11  17 -10 25.3169 37.7383   7
  17  -6  -7 151.331 49.1769   6
 -17   6   7 163.517 31.7990   5
 -11  17  -7 194.129 47.9571   7
 -17   6   4 185.433 27.6819   4
  -6 -11  -4 117.626 47.7922   1
  17  -6  -4 144.462 29.4256   6
 -11  17  -4 194.210 35.3598   7
  11 -17   4 194.593 49.1678   2
 -17   6   4 170.884 27.6778   8
   6  11   4 171.450 30.8771   8
 -17   6   4 261.783 67.6573   3
 -11  17  -1 138.434 26.3906   7
  17  -6  -1 165.094 23.0776   6
 -17   6   1 200.682 25.2076   4
   6  11   1 166.773 24.0986   8
 -11  17  -1 200.009 48.7514   1
 -11  17   2 419.925 46.5371   4
 -11  17   2 424.006 48.7826   8
  11 -17  -2 356.381 70.8645   3
   6  11  -2 402.387 46.9089   6
   6  11  -2 495.132 47.1673   7
  11 -17  -2 351.846 69.1210   1
   6  11  -5 1135.52 127.395   6
 -11  17   5 1378.70 129.452   8
   6  11  -5 1376.06 127.838   7
   6  11  -8 158.311 34.6414   6
 -11  17   8 135.047 35.2937   5
   6  11  -8 237.563 47.8444   7
 -17   5   8 57.0158 26.2598   5
  17  -5  -8-1.17666 43.9809   6
 -12  17  -8 43.3220 47.4833   7
 -12  17  -5 204.700 41.9142   7
   5  12   5 254.354 39.8548   8
 -12  17  -2 572.551 69.5735   7
 -17   5   2 707.575 66.9068   4
  17  -5  -2 672.911 66.8037   6
   5  12   2 744.730 68.0405   8
 -12  17   1 404.016 44.0725   4
   5  12  -1 558.903 64.7152   1
 -12  17   1 391.581 46.5796   8
  12 -17  -1 410.870 64.7682   3
   5  12  -4 218.024 30.6395   7
 -12  17   4 239.264 32.0273   4
   5  12  -4 160.699 30.3316   6
 -12  17   4 194.713 34.6190   8
  12 -17  -4 175.935 57.3920   1
 -12  17   7 56.5180 41.4968   8
   5  12  -7 82.5831 29.9269   6
   5  12  -7 111.748 40.0849   7
 -12  17   7 85.9059 30.2605   5
 -17   5 -10 85.6174 43.8497   7
  12 -17 -10 0.37835 30.1508   6
  17  -4  -9 148.044 41.4899   6
 -13  17  -9 159.252 49.5823   7
 -13  17  -6 287.965 49.7751   7
 -17   4   6 272.091 37.4542   5
   4  13   6 253.569 47.6947   8
  17  -4  -6 265.302 47.2550   6
  -4 -13  -3 55.5571 46.3247   1
  -4 -13  -3 138.423 67.3387   3
  17  -4  -3 186.639 25.4404   6
   4  13   3 158.426 28.4137   8
  13 -17   3 184.697 43.4702   2
 -17   4   3 196.317 26.4141   4
 -13  17  -3 148.592 32.8430   7
  17  -4   0 298.586 35.0227   6
 -13  17   0 279.469 37.8046   4
   4  13   0 367.672 36.7645   8
   4  13   0 365.676 57.5642   1
 -13  17   0 305.727 52.8684   1
 -17   4   0 370.869 36.9433   4
   4  13  -3 619.329 67.6877   6
  -4 -13   3 860.349 85.1830   2
  13 -17  -3 539.591 85.6431   1
 -13  17   3 612.182 68.9381   8
   4  13  -3 701.097 67.7062   7
 -13  17   3 639.825 67.2179   4
   4  13  -6 434.531 54.3378   6
 -13  17   6 485.535 58.5454   8
 -13  17   6 452.464 54.4987   5
   4  13  -6 532.044 58.3280   7
  13 -17  -9 670.929 78.7779   6
   4  13  -9 626.057 79.6423   7
  17  -3 -10-6.61280 25.4748   6
 -14  17 -10-18.5850 38.0385   7
 -14  17  -7 420.449 62.3577   7
   3  14   7 267.240 58.0281   8
  17  -3  -7 358.739 55.6129   6
 -17   3   7 381.258 44.8551   5
 -14  17  -4-12.9587 32.6214   7
   3  14   4 33.1839 26.6602   8
 -17   3   4 24.8358 20.9524   4
  17  -3  -4 8.40843 21.9864   6
  17  -3  -1 1868.51 172.512   6
 -17   3   1 1890.88 172.176   4
   3  14   1 1987.85 172.519   8
 -14  17  -1 1364.38 172.746   7
   3  14  -2 493.367 53.4607   6
 -14  17   2 511.484 52.8617   4
  14 -17  -2 325.907 69.3554   1
 -14  17   2 519.900 53.9271   8
   3  14  -2 522.180 52.8252   7
 -17   3  -2 419.878 61.0477   1
   3  14  -5 48.8524 25.6355   6
   3  14  -5 81.0412 27.7587   7
 -14  17   5 44.3980 30.2586   8
   3  14  -8 78.0967 31.2741   6
 -14  17   8 102.397 33.5815   5
   3  14  -8 141.952 44.9230   7
  17  -2  -8 96.0470 41.7966   6
 -15  17  -8 111.446 51.8412   7
 -15  17  -5 412.042 54.4448   7
   2  15   5 348.683 48.6326   8
  15 -17   2 2393.74 258.809   2
  17  -2  -2 2796.84 253.537   6
 -17   2   2 2841.05 252.988   4
   2  15   2 2635.96 253.930   8
 -15  17  -2 2198.09 254.315   7
  17  -2   1 11183.4 1130.91   6
 -15  17   1 11954.4 1131.38   8
  15 -17  -1 12620.4 1133.89   3
 -15  17   1 12082.2 1131.28   4
   2  15  -1 14362.2 1140.09   1
 -17   2  -4 1553.72 145.071   2
   2  15  -4 1018.64 111.813   6
 -15  17   4 1057.17 111.627   8
   2  15  -4 1255.11 111.640   7
  15 -17  -4 788.741 123.639   1
 -15  17   4 1185.51 111.449   4
   2  15  -7 957.122 94.4870   7
 -15  17   7 782.417 90.5493   5
 -15  17   7 906.431 94.5722   8
   2  15  -7 839.868 90.9659   6
  15 -17 -10 19.4101 29.5807   6
  17  -1  -9 281.186 48.0523   6
 -16  17  -9 361.293 59.3136   7
  17  -1  -6 708.208 85.6601   6
   1  16   6 781.183 88.7516   8
 -17   1   6 865.138 82.3924   5
 -16  17  -6 818.010 93.1450   7
  17  -1  -3 222.618 29.2292   6
  -1 -16  -3 157.056 52.1070   1
   1  16   3 215.382 27.6237   5
  16 -17   3 204.567 40.9028   2
   1  16   3 263.942 33.3320   8
 -16  17  -3 159.971 37.0721   7
 -17   1   3 245.848 29.0738   4
  17  -1   0 1062.14 118.335   6
  16 -17   0 1561.62 122.788   3
 -17   1   0 1166.93 118.241   4
 -16  17   0 1370.18 119.943   4
   1  16   0 1665.24 135.507   1
 -17   1  -3 41.2786 67.8479   1
  -1 -16   3-3.73738 43.0703   2
 -17   1  -3 28.9181 54.3327   2
   1  16  -3-4.17691 23.6276   7
  16 -17  -3-41.7979 49.0981   1
 -16  17   3 0.95342 22.2907   8
 -16  17   3 6.84401 23.6478   4
   1  16  -3-7.69712 23.5469   6
 -16  17   6 97.9767 34.7970   8
   1  16  -6 102.143 33.7631   7
   1  16  -6 66.6446 31.6238   6
  16 -17  -9 21.8381 42.1094   6
   1  16  -9 27.3193 41.6966   7
 -17  17 -10 90.8270 39.3174   7
 -17  17  -7 10.1656 53.5303   7
  17   0  -7 10.5309 35.5783   6
 -17   0   7 11.7104 22.2840   5
   0  17   7 32.9213 44.2235   8
  17   0  -4 597.866 53.1180   6
   0  17   4 400.434 51.8145   5
   0  17   4 468.589 56.3683   8
 -17  17  -4 480.953 61.2782   7
 -17   0   1 1823.29 160.998   4
  17   0  -1 2104.78 162.438   6
  17 -17   1 1468.09 160.498   3
 -17  17  -1 2106.13 168.702   1
   0  17   1 1899.56 162.433   8
 -17  17  -1 1357.17 161.618   7
 -17  17   2 66.7706 22.9174   8
   0  17  -2 86.6552 24.0285   7
 -17  17   2 94.0919 24.8714   4
 -17   0  -2 90.4948 40.7936   2
 -17   0  -2 21.1391 44.4932   3
 -17  17   5 43.4060 30.5254   4
   0  17  -5 51.7565 29.7480   6
   0  17  -5 35.8747 28.2047   7
 -17  17   5 64.0417 30.5593   8
   0  17  -8 224.351 50.4157   7
  -1  18  -7 67.7452 38.3123   7
 -18  17   7 116.310 39.9167   8
  -1  18  -4 284.099 41.0015   6
  18 -17  -4 223.906 58.6320   1
 -18  17   4 264.000 37.4746   8
  -1  18  -4 279.630 38.4886   7
 -18  17   1 370.305 43.0336   8
 -18  17   1 419.944 46.1030   4
  -1  18  -1 477.293 70.4625   1
 -18  17  -2 10.5135 23.7993   7
 -17  -1   2 16.3086 16.1043   4
  -1  18   2 26.4044 24.6569   8
  17   1  -2 32.8668 18.7982   6
  18 -17   2 34.7767 27.3055   2
 -18  17  -5 83.5491 43.7308   7
 -17  -1   5 116.769 22.3183   5
  -1  18   5 101.944 36.3573   8
  -1  18   5 68.6136 25.3903   5
  17   1  -8 243.911 49.2820   6
 -18  17  -8 341.814 65.6329   7
  18 -16  -8 144.347 51.8809   6
  -2  18  -8 97.7387 44.6751   7
  -2  18  -5 15.1660 31.1076   6
 -18  16   5 52.3056 27.0235   8
  -2  18  -5 28.9256 28.1325   7
 -18  16   2 561.266 58.6089   8
  16   2  -1 2592.28 221.251   6
 -18  16  -1 2780.16 225.090   1
 -16  -2   1 2271.91 219.723   4
  -2  18   1 2798.87 221.836   8
  -2  18   4 808.915 81.5701   8
  -2  18   4 745.882 77.7694   5
  16   2  -7 54.6070 36.6621   6
  -2  18   7 31.2397 44.9370   8
 -18  16  -7 57.2657 57.4871   7
 -18  16 -10 240.851 47.3986   7
 -18  15   9 9.01807 28.1711   5
  -3  18  -9 38.1487 43.6227   7
  18 -15  -9 35.9666 42.9401   6
  -3  18  -6 183.923 41.6200   6
 -18  15   6 90.6985 34.0776   8
  -3  18  -6 118.629 38.0861   7
  18 -15  -3 447.543 73.7235   1
 -18  15   3 602.708 62.0107   8
 -15  -3  -3 672.206 77.2493   3
 -15  -3  -3 739.269 93.2873   1
  15   3   0 1626.65 157.888   6
 -18  15   0 1646.94 157.854   8
  -3  18   3 89.2911 30.8162   8
  15   3  -3 153.344 23.8460   6
  -3  18   3 97.1626 21.4412   5
   3 -18  -3 135.763 70.5136   3
  -3  18   6 561.085 72.4667   8
  15   3  -6 520.804 67.4951   6
  -3  18   6 543.601 66.7112   5
 -15  -3   6 715.166 63.8323   5
 -18  15  -9 7.89018 49.9825   7
  15   3  -9 6.68825 31.5880   6
  18 -14 -10 49.1803 28.8630   6
  -4  18 -10 1.61635 32.1740   7
 -18  14   7 109.306 33.6647   5
  -4  18  -7 156.965 43.6267   7
  18 -14  -4 127.509 45.7767   2
  -4  18  -4 260.864 39.0851   6
  18 -14  -4 138.387 51.3156   1
 -18  14   4 201.675 31.4447   8
 -14  -4  -4 281.602 68.7907   1
 -14  -4  -4 224.899 58.6777   2
 -18  14   1 1998.20 191.685   8
 -18  14  -2 15.6777 26.2672   7
 -14  -4   2-12.5545 30.6355   2
 -14  -4   2 5.93225 14.0012   4
  -4  18   2-7.07219 26.3580   8
  14   4  -2 11.5839 18.5177   6
  14   4  -5 151.043 28.0092   6
  -4  18   5 108.024 28.4709   5
  -4  18   5 123.719 37.1418   8
 -14  -4   5 134.306 22.9697   5
  14   4  -5 165.356 30.2677   7
 -18  14  -8 369.747 70.4138   7
  14   4  -8 204.451 44.1275   6
 -18  13   8-12.0413 31.2072   5
  18 -13  -8 41.5232 47.2036   6
  -5  18  -8-28.5198 46.3291   7
  -5  18  -5 8.50025 36.8322   6
 -18  13   5-16.3794 27.0148   8
 -18  13   5 57.5841 29.1641   4
 -13  -5  -2 311.084 61.4853   3
  18 -13  -2 203.671 46.7872   1
 -18  13   2 364.178 37.4855   8
 -13  -5  -2 348.760 59.0701   1
 -18  13   2 364.360 39.5961   4
  -5  18  -2 280.245 40.2901   7
 -18  13  -1 772.218 70.7499   1
  13   5  -1 733.568 67.8870   6
  18 -13   1 526.096 67.7987   2
  -5  18   1 632.831 69.8737   8
  13   5  -1 911.983 77.6234   1
  -5  18   1 663.478 66.4770   4
  -5  18   4 219.207 44.5931   8
 -13  -5   4 361.025 34.5318   5
  13   5  -4 381.765 38.9062   7
  -5  18   4 210.258 37.7552   5
  13   5  -7 372.021 49.5905   7
  -5  18   7 281.832 43.4561   5
  -5  18   7 330.343 56.6342   8
  13   5  -7 273.605 46.7304   6
 -18  13 -10 1.43967 38.2471   7
  18 -12  -9 55.3646 40.5406   6
 -18  12   9-7.89079 27.9500   5
  -6  18  -9 33.0364 42.9945   7
 -18  12   6 616.920 69.3336   8
 -18  12   3 4039.19 388.851   4
  -6  18  -3 4278.71 390.049   7
   6 -18   3 4668.37 400.695   2
  18 -12  -3 3325.63 393.304   1
 -18  12   3 4243.49 388.388   8
  12   6   3 4419.78 389.182   8
 -12  -6  -3 3898.55 398.004   1
 -12  -6  -3 3791.90 395.534   3
  18 -12  -3 3184.36 392.101   2
 -18  12   0 5482.53 428.236   4
  12   6   0 5593.54 428.093   6
  -6  18   0 6337.12 438.841   1
 -18  12   0 5633.48 427.353   8
   6 -18  -3 4246.59 507.326   3
   6 -18  -3 3534.01 506.633   1
 -12  -6   3 5280.38 497.988   5
 -12  -6   3 5569.69 505.263   2
  12   6  -3 6283.77 499.427   7
  -6  18   3 4550.26 499.767   8
  12   6  -6 96.3759 31.5779   7
  -6  18   6 73.1556 28.3449   5
  12   6  -6 101.886 29.6785   6
  -6  18   6 23.3165 37.5647   8
 -18  12  -9 30.5372 57.1341   7
  -7  18 -10 163.572 41.1991   7
  18 -11 -10 141.816 32.6913   6
 -18  11   7 122.694 31.4935   5
  18 -11  -7 131.224 50.5630   6
  -7  18  -7 117.448 41.4835   7
 -18  11   4 67.5610 63.2469   3
 -18  11   4 40.1026 26.2281   4
  -7  18  -4 61.7120 28.1176   7
 -11  -7  -4 66.8980 51.7769   1
  18 -11  -4 38.8619 35.4857   2
 -18  11   4 37.4470 20.7117   8
  11   7   4 38.1122 29.7714   8
 -18  11   1 1384.93 130.432   4
  -7  18  -1 1314.40 128.860   4
 -18  11   1 1376.58 128.950   8
  -7  18  -1 1218.34 130.659   7
  -7  18  -1 1557.27 145.062   1
   7 -18  -2 58.2637 62.4352   3
  11   7  -2 47.5975 19.9758   6
  -7  18   2 52.4666 19.9271   4
  -7  18   2 70.5832 26.1678   8
 -11  -7   2 60.9250 32.6125   2
 -11  -7   5 682.183 68.7915   5
  11   7  -5 635.036 72.0351   6
  -7  18   5 661.079 72.5542   5
  -7  18   5 630.251 77.2055   8
  11   7  -5 809.780 72.6198   7
  11   7  -8 60.8328 33.5302   6
  -7  18   8 45.8426 50.5033   8
  11   7  -8 97.6721 40.9525   7
  18 -10  -8 150.181 52.9355   6
 -18  10   8 170.889 34.6785   5
  -8  18  -8 108.819 49.9008   7
  10   8   5 108.404 36.3858   8
 -18  10   5 126.686 29.9781   8
 -18  10   5 142.648 30.2127   4
 -18  10   2 124.911 44.8805   3
 -10  -8  -2 52.5669 40.2803   1
  10   8   2 137.275 22.3848   8
 -18  10   2 115.422 19.9357   8
  18 -10  -2 79.2317 21.6495   2
 -18  10   2 136.140 24.3314   4
  -8  18  -2 119.178 26.9833   7
  18 -10  -2 78.9862 29.6143   1
  10   8  -1 89.1879 40.3493   1
  10   8  -1 58.9572 20.3535   6
  -8  18   1 79.3894 18.1605   4
  10   8  -4 4.10659 20.6948   6
 -10  -8   4 28.3360 11.9453   5
  10   8  -4 46.8732 23.6227   7
  10   8  -7 118.135 38.3947   7
  -8  18   7 106.489 30.4284   5
  10   8  -7 88.6889 34.0235   6
 -18  10 -10 69.1485 41.9647   7
  18  -9  -9 352.806 53.3636   6
  -9  18  -9 307.133 60.0356   7
 -18   9   3 528.669 51.1110   4
 -18   9   3 535.536 71.8392   3
  18  -9  -3 334.351 52.7843   2
  -9  -9  -3 362.074 67.2277   1
   9 -18   3 466.623 70.5858   2
  -9  18  -3 548.141 55.6118   7
 -18   9   3 496.808 48.8170   8
   9   9   3 454.944 50.9557   8
  -9  -9  -3 424.236 76.1777   3
 -18   9   0 4746.43 454.952   4
   9   9   0 5600.94 460.674   1
  -9  18   0 4595.77 454.213   4
  -9  18   0 5313.86 462.608   1
   9   9  -3 900.769 86.1756   7
  -9  -9   3 967.841 96.5794   2
   9   9  -3 827.009 86.8653   6
  -9  18   3 870.802 86.1816   4
   9 -18  -3 561.853 103.689   1
   9 -18  -3 927.759 108.875   3
  -9  18   6 877.321 99.5017   5
   9   9  -6 847.147 98.9707   6
   9   9  -9 323.302 44.6272   6
   9   9  -9 369.526 49.8009   7
  18  -8 -10 70.7215 30.2502   6
 -10  18 -10 65.6451 37.3189   7
  18  -8  -7 60.2219 46.1297   6
 -18   8   7 44.3007 28.8830   5
 -18   8   4 78.3990 23.8409   4
   8  10   4 22.1678 27.4003   8
  -8 -10  -4 43.8798 48.3425   1
 -18   8   4 61.0109 62.9119   3
 -10  18  -4 71.5331 29.1123   7
 -18   8   1 3328.80 293.364   4
  18  -8  -1 2806.31 292.789   6
 -18   8   1 3659.35 294.753   3
 -10  18  -1 3666.32 303.918   1
 -10  18  -1 2681.18 293.541   7
 -10  18   2 474.587 50.8286   4
  10 -18  -2 503.602 73.6570   1
  10 -18  -2 516.620 76.3491   3
   8  10  -5 431.644 53.9224   6
   8  10  -5 533.063 54.7363   7
   8  10  -8 27.0913 29.8601   6
   8  10  -8 48.1526 42.3419   7
 -10  18   8 31.9414 28.6968   5
 -18   7   8 29.7001 27.4628   5
  18  -7  -8 4.35797 46.1361   6
   7  11   5 114.386 35.0357   8
 -11  18  -5 148.479 36.5096   7
  -7 -11  -2 2486.34 338.409   1
  18  -7  -2 3421.75 332.552   6
   7  11   2 3729.37 332.583   8
 -18   7   2 4024.16 338.008   3
 -11  18  -2 3293.16 333.594   7
 -18   7   2 3506.46 332.433   4
 -11  18   1 357.693 40.8755   4
   7  11  -1 517.492 61.2500   1
  11 -18  -1 317.440 66.3673   3
 -11  18   1 404.422 45.2069   8
   7  11  -4 302.198 40.0953   6
   7  11  -4 391.388 40.8501   7
 -11  18   4 379.278 41.2797   4
 -11  18   7 173.998 46.1147   8
   7  11  -7 109.209 34.0753   6
 -11  18   7 158.875 32.8945   5
   7  11  -7 171.031 40.7206   7
 -18   7 -10 178.087 48.3800   7
  18  -6  -9 33.3201 37.9090   6
   6  12   6 23.7739 37.9975   8
 -18   6   6 17.9152 23.2213   5
 -12  18  -6 8.70065 36.7830   7
 -18   6   3 15.8649 17.4106   8
 -18   6   3 28.1245 20.3789   4
  12 -18   3 59.5023 42.6556   2
  -6 -12  -3 42.8574 45.9648   1
   6  12   3 38.3451 23.4194   8
  18  -6  -3 10.2980 19.1437   6
 -12  18  -3 36.5193 28.2785   7
  -6 -12  -3 98.4318 63.7959   3
 -12  18   0 101.892 20.1874   4
 -12  18   0 100.185 42.0395   1
 -18   6   0 92.2027 20.7318   4
   6  12   0 86.8550 45.0523   1
   6  12   0 69.0346 18.0390   8
  18  -6   0 53.3732 14.9802   6
  12 -18  -3 99.9046 58.4729   1
   6  12  -3 74.9746 23.8005   6
 -12  18   3 104.451 24.4754   4
   6  12  -3 85.8124 22.6817   7
 -12  18   3 115.037 29.9000   8
  -6 -12   3 93.2023 42.7448   2
   6  12  -6 22.8171 27.1326   6
 -12  18   6 14.4483 27.0066   5
   6  12  -6 6.00546 30.4969   7
 -12  18   6-3.79455 34.4838   8
  12 -18  -9 22.2663 41.3600   6
   6  12  -9-2.42654 38.0297   7
  18  -5 -10 28.3064 27.0077   6
  18  -5  -7 512.046 64.8722   6
 -18   5   7 425.624 52.4052   5
 -13  18  -7 472.345 65.6636   7
  18  -5  -4 1693.98 153.924   6
 -18   5   4 1976.46 172.556   3
   5  13   4 1390.87 153.849   8
 -13  18  -4 1394.83 155.290   7
 -18   5   4 1659.22 152.775   4
  18  -5  -1 632.636 59.8964   6
 -18   5   1 662.892 60.2421   4
   5  13   1 637.903 60.4137   8
 -13  18  -1 672.819 76.8241   1
 -13  18   2 9470.41 942.275   4
   5  13  -2 10572.4 943.113   6
 -18   5  -2 9672.55 944.035   1
  13 -18  -2 9631.70 947.159   3
 -13  18   2 9498.36 942.820   8
   5  13  -2 10529.8 942.903   7
 -13  18   5 822.148 93.0845   8
   5  13  -5 767.202 90.0975   6
   5  13  -8 88.2106 44.6008   7
   5  13  -8 3.83158 30.2226   6
 -13  18   8 68.9847 32.0364   5
 -18   4   8 237.024 35.9466   5
  18  -4  -8 242.000 51.1655   6
 -14  18  -8 294.314 58.1298   7
   4  14   5 844.966 84.9079   8
 -14  18  -5 733.189 87.0583   7
 -18   4   2 329.731 38.3890   4
  18  -4  -2 341.668 38.5641   6
   4  14   2 386.307 41.7634   8
 -14  18  -2 333.148 43.1954   7
 -18   4  -1 275.379 36.5467   3
  14 -18  -1 194.681 51.4684   3
 -14  18   1 178.825 28.9028   4
 -14  18   1 163.599 31.2764   8
   4  14  -1 289.451 53.5561   1
 -14  18   4 86.6389 26.0041   4
   4  14  -4 32.0613 23.4471   6
   4  14  -4 44.9508 24.7629   7
 -14  18   4 92.1337 29.8003   8
   4  14  -7 68.2767 31.5391   6
 -14  18   7 97.3117 32.7531   5
 -14  18   7 92.6401 41.6510   8
   4  14  -7 62.2581 38.6879   7
  14 -18 -10 201.869 37.5719   6
  18  -3  -9 157.989 41.8583   6
 -15  18  -9 172.006 51.9955   7
 -15  18  -6 77.4497 44.4121   7
   3  15   6 110.053 39.9341   8
 -18   3   6 111.741 25.9285   5
  18  -3  -3 1486.01 128.704   6
  -3 -15  -3 1228.14 148.303   3
 -15  18  -3 1247.60 130.580   7
  15 -18   3 1183.86 136.862   2
   3  15   3 1200.12 129.037   8
 -18   3   3 1466.34 127.890   4
  15 -18   0 269.547 45.6611   3
   3  15   0 266.088 56.2843   1
 -18   3   0 247.573 28.8831   4
 -15  18   0 280.992 31.7557   4
   3  15   0 226.574 30.1943   8
  18  -3   0 193.342 26.8198   6
  -3 -15   3 37.1158 43.8612   2
 -15  18   3 17.0426 26.1948   8
 -15  18   3 17.1458 23.1631   4
   3  15  -3 13.4484 21.4769   7
   3  15  -3 7.62966 22.1860   6
  15 -18  -3-21.6928 53.4402   1
   3  15  -6 45.8486 28.4298   6
 -15  18   6 43.5272 33.9488   8
   3  15  -6 42.3962 31.5958   7
   3  15  -9 110.604 42.3397   7
  15 -18  -9 126.417 44.2898   6
 -16  18 -10 67.1118 37.1902   7
 -16  18  -7 47.7164 50.9049   7
 -18   2   7 88.7683 25.8643   5
   2  16   7 46.2659 45.4915   8
  18  -2  -7 143.147 40.0143   6
 -16  18  -4 214.047 43.2872   7
 -18   2   4 256.805 32.1830   4
   2  16   4 225.059 31.1754   5
  18  -2  -4 234.793 33.3914   6
   2  16   4 278.682 38.6345   8
 -16  18  -1 35.9743 18.5032   7
 -18   2   1 35.4119 16.1213   4
 -16  18  -1 26.4573 37.4563   1
   2  16   1 44.6090 19.3471   8
  18  -2  -1 30.6797 16.8377   6
   2  16  -2 6294.17 531.960   6
 -16  18   2 5527.63 530.920   8
   2  16  -2 5207.28 531.024   7
 -16  18   2 5438.18 530.687   4
 -16  18   5 199.737 35.0283   4
   2  16  -5 153.857 32.3122   6
 -16  18   5 133.772 34.0504   8
   2  16  -5 147.488 32.5085   7
   2  16  -8 103.063 44.7271   7
 -16  18   8 92.0843 33.2146   5
  18  -1  -8 38.6460 41.0580   6
 -17  18  -8 26.2695 52.2491   7
 -17  18  -5 49.9903 42.3488   7
   1  17   5 99.6570 34.5777   8
 -18   1   5 93.6642 22.3090   5
 -18   1   2 2122.25 196.568   4
  18  -1  -2 2274.11 197.523   6
   1  17   2 1948.65 198.013   8
  17 -18   2 2094.42 204.709   2
 -17  18  -2 1705.16 198.384   7
   1  17  -1 106.231 55.9650   1
 -17  18   1 123.764 24.0194   8
 -17  18   1 146.089 26.3386   4
 -17  18   4 131.896 30.3313   4
   1  17  -4 107.985 28.3024   6
   1  17  -4 85.5746 29.1291   7
 -17  18   4 91.6828 29.0161   8
 -17  18   7 4.11070 38.5715   8
   1  17  -7 38.1918 32.7415   6
 -17  18   7 3.65696 30.3667   5
   1  17  -7 36.5562 37.4313   7
 -18  18  -9-8.70630 47.9377   7
  18   0  -9 3.10699 33.9591   6
 -18  18  -6-9.86383 50.1891   7
 -18   0   6 33.5071 20.6449   5
  18   0  -6 31.1667 30.9560   6
   0  18   6 26.6128 37.4580   8
  18 -18   3 67.0998 30.2845   2
 -18   0   3 20.2674 18.0658   4
  18   0  -3 33.5420 19.6698   6
   0  18   3 5.53282 15.9333   5
 -18  18  -3 29.2920 30.8518   7
  18 -18   3 8.39724 32.0015   3
   0  18   3 17.0320 27.0669   8
  18   0   0 509.373 48.5280   6
   0  18   0 483.689 50.9230   8
 -18   0   0 478.585 47.9937   4
 -18  18   0 433.209 51.4211   4
 -18  18   0 406.244 50.5198   8
   0  18   0 543.347 73.6574   1
   0  18  -3 171.333 33.7571   6
 -18   0  -3 180.943 73.5125   1
   0  18  -3 78.0309 25.1704   7
 -18  18   3 141.339 29.2612   4
 -18  18   3 152.441 27.8318   8
 -18   0  -3 144.236 59.3475   2
  18 -18  -3 43.7738 49.5672   1
 -18  18   6 133.245 39.5540   8
   0  18  -6 190.738 38.5453   7
   0  18  -9-0.94493 37.2154   7
  18 -18  -9-1.08141 40.3303   6
  -1  19  -8-15.8712 41.5039   7
  19 -18  -8 38.8382 47.9607   6
  -1  19  -5 135.253 38.0854   6
  -1  19  -5 121.500 33.3771   7
 -19  18   5 125.354 33.4375   8
 -19  18   2 1885.54 169.103   4
  -1  19  -2 1649.23 169.241   7
 -19  18   2 1758.04 168.568   8
 -18  -1  -2 1660.54 176.098   3
 -18  -1  -2 1603.31 174.763   2
  -1  19   1 155.880 25.7919   8
  18   1  -1 138.068 21.1330   6
 -19  18  -1 68.9196 19.1272   7
 -18  -1   1 124.284 17.8126   4
 -19  18  -1 111.220 32.2534   1
 -19  18  -4 13.9997 38.2027   7
  18   1  -4-5.78345 21.8727   6
  -1  19   4 18.4750 19.2186   5
  -1  19   4 14.9756 30.4663   8
 -19  18  -7-4.44745 56.4058   7
  -1  19   7-19.9011 44.9126   8
 -18  -1   7-9.21546 19.7766   5
  18   1  -7-17.3275 37.3705   6
 -19  17   9 39.1507 29.6957   5
  19 -17  -9 101.596 42.6638   6
  -2  19  -9 99.5619 39.4701   7
  -2  19  -6 35.9730 32.0945   7
 -19  17   6-19.8950 34.0673   8
 -17  -2  -3 931.411 104.406   2
 -17  -2  -3 917.786 98.1754   3
 -19  17   3 854.187 85.1040   8
 -17  -2  -3 1136.02 128.499   1
  -2  19  -3 857.605 86.1485   7
 -19  17   0-4.67467 19.2059   8
 -17  -2   0 0.44195 13.2779   4
  17   2   0-2.58298 15.9489   6
  -2  19   0 3.22374 50.1847   1
 -17  -2   0-11.5743 18.1062   2
 -19  17   0-2.89914 21.7735   4
 -19  17  -3 331.216 46.9158   7
  17   2  -3 395.811 38.6885   6
  -2  19   3 339.571 44.5909   8
  -2  19   3 278.420 36.9525   5
  17   2  -6 0.82805 29.3540   6
  -2  19   6 22.8921 24.9422   5
 -19  17  -6 48.9394 52.9806   7
 -17  -2   6 0.60053 19.2509   5
  -2  19   6 24.1793 38.8116   8
  17   2  -9-10.8194 31.4468   6
 -19  17  -9-40.5224 48.9894   7
 -19  16   7 57.3826 39.0607   8
 -19  16   7 22.4648 30.7388   5
  -3  19  -7 41.9109 38.9876   7
  19 -16  -4-8.98896 38.8968   2
 -16  -3  -4-71.1034 61.3665   2
  19 -16  -4 34.6977 44.8637   1
 -19  16   4 0.26615 24.6633   8
 -16  -3  -4 5.52803 77.9897   1
  -3  19  -4 7.25298 26.2948   7
 -19  16   1 469.259 49.0445   8
  16   3  -2 342.690 36.2320   6
 -19  16  -2 239.282 38.2285   7
  -3  19   2 274.485 40.7805   8
 -16  -3   2 341.690 33.2648   4
  19 -16   2 247.395 39.4904   2
  -3  19   5 30.2345 35.7800   8
  -3  19   5 29.8922 23.2110   5
 -16  -3   5 15.2178 17.4878   5
  16   3  -8 24.5710 36.0258   6
 -19  16  -8 83.6088 59.4626   7
  -4  19  -8 7.39082 43.2253   7
 -19  15   8 36.8451 32.4186   5
  19 -15  -8-11.4086 49.8687   6
 -19  15   5 740.066 82.7906   8
  -4  19  -5 725.236 84.4930   7
 -19  15   5 956.009 85.0162   4
 -19  15   2 3538.90 332.583   8
 -15  -4  -2 3228.42 339.123   3
 -15  -4   1 7563.62 561.836   2
  15   4  -1 7433.40 561.535   1
  19 -15   1 4125.02 558.713   2
  -4  19   1 5378.97 558.430   8
  15   4  -1 6027.84 558.030   6
 -19  15  -1 6580.94 560.372   1
  -4  19   4 343.277 48.7849   5
 -15  -4   4 500.967 46.7666   5
  -4  19   4 338.998 55.3279   8
  15   4  -4 533.818 50.4927   7
  -4  19   7 75.6165 46.1787   8
  15   4  -7 81.1214 35.4993   6
 -19  15 -10 7.46859 37.9295   7
  -5  19  -9 70.8554 44.3864   7
  19 -14  -9 45.5552 40.1893   6
 -19  14   9 3.49365 27.3880   5
 -19  14   6 88.4097 33.8240   8
  -5  19  -6 63.0808 37.4973   7
 -19  14   3 421.282 45.9301   4
 -14  -5  -3 384.239 63.0481   3
 -19  14   3 372.846 42.9678   8
 -14  -5  -3 426.227 78.6616   1
   5 -19   3 426.909 63.3632   2
  19 -14  -3 280.830 54.6857   1
 -19  14   0 1484.80 149.386   8
  14   5   0 1606.64 149.918   6
  -5  19   0 1773.92 164.928   1
  14   5  -3 80.7193 21.9823   6
  -5  19   3 98.2333 31.5849   8
   5 -19  -3 48.7403 51.7203   1
   5 -19  -3 0.97003 67.7689   3
  -5  19   6 0.45958 38.5777   8
 -14  -5   6 30.0046 17.6322   5
  -5  19   6 54.7744 26.3104   5
  14   5  -6 49.0552 30.6294   7
  14   5  -6 19.2464 28.8313   6
 -19  14  -9 20.4735 52.6281   7
  14   5  -9 14.3529 29.1616   6
  19 -13 -10 97.3835 31.3163   6
  -6  19 -10 149.977 36.0461   7
 -19  13   7 245.297 41.3890   5
  19 -13  -7 291.055 57.6475   6
  -6  19  -7 243.128 48.0027   7
 -19  13   4 56.9185 23.1341   8
 -19  13   4 47.3193 27.6287   4
 -13  -6  -4 50.1255 54.6066   1
  19 -13  -4 38.5712 37.3390   2
  19 -13  -4 57.4421 43.3895   1
 -19  13   1 47.0195 23.5567   4
 -19  13   1 45.9646 18.3803   8
  -6  19  -1 97.0146 54.9346   1
 -13  -6   2 190.867 34.6847   2
   6 -19  -2 134.920 70.3397   3
  -6  19   2 121.825 22.7057   4
  13   6  -2 132.340 23.8432   6
  -6  19   2 102.746 29.3441   8
  13   6  -5 75.2512 28.0829   7
 -13  -6   5 81.5251 17.7204   5
  13   6  -5 70.6254 26.2786   6
  -6  19   5 63.0793 25.1372   5
  -6  19   5 29.5771 35.5031   8
  13   6  -8 229.048 41.5909   6
  -6  19   8 196.691 55.7780   8
  -7  19  -8 88.5425 47.5710   7
  19 -12  -8 144.864 50.7989   6
 -19  12   8 128.225 34.0184   5
 -19  12   5 103.039 30.5635   4
 -19  12   5 72.2158 28.9308   8
 -19  12   2 22.4602 16.9782   8
  19 -12  -2 24.0147 20.8906   2
 -19  12   2 17.5186 23.0033   4
  -7  19  -2 34.2769 26.1920   7
  -7  19   1 415.929 42.6097   4
  12   7  -1 376.821 44.3965   6
  12   7  -1 501.160 58.1196   1
  -7  19   1 404.191 47.9951   8
  12   7  -4 2100.07 194.871   6
  -7  19   4 1658.77 196.204   8
  12   7  -4 2169.23 194.724   7
  -7  19   7 51.6429 48.3179   8
  12   7  -7 86.7052 34.5056   6
  12   7  -7 145.350 39.5650   7
  -7  19   7 129.998 31.9199   5
 -19  12 -10 281.958 49.6471   7
  19 -11  -9 198.196 45.0876   6
  -8  19  -9 168.983 48.9746   7
 -19  11   3 313.774 37.8430   4
 -19  11   3 323.804 63.1942   3
 -19  11   3 282.383 35.0128   8
  19 -11  -3 234.578 47.3348   1
 -11  -8  -3 307.165 64.7138   3
 -11  -8  -3 267.410 59.7818   1
  11   8   3 360.475 38.5760   8
   8 -19   3 381.146 59.4636   2
  -8  19  -3 362.244 41.4326   7
  19 -11  -3 168.112 39.6313   2
  11   8   0 3270.95 301.290   6
  -8  19   0 3494.64 310.901   1
 -19  11   0 3012.94 301.024   4
  -8  19   0 3118.95 299.965   4
   8 -19  -3 310.469 80.9172   1
  -8  19   3 446.369 63.1339   8
  11   8  -3 746.830 59.4040   7
  -8  19   3 458.836 58.2885   4
 -11  -8   3 737.896 70.9703   2
   8 -19  -3 468.468 86.4646   3
  -8  19   6 192.744 44.9073   8
  11   8  -6 195.039 35.5545   6
  -8  19   6 184.424 34.9631   5
  11   8  -6 285.691 38.7652   7
  11   8  -9 44.6640 27.4417   6
  19 -10 -10 83.0352 30.2481   6
  -9  19 -10 71.4115 37.3446   7
  19 -10  -7 145.519 50.1258   6
 -19  10   7 108.569 31.6399   5
 -19  10   4 24.2314 64.1015   3
  10   9   4 32.4309 28.0164   8
 -19  10   4 22.3346 25.5103   4
  19 -10  -4 18.4318 28.6126   2
 -10  -9  -4 28.3976 50.4053   1
  -9  19  -4 37.2043 28.2119   7
 -19  10   4 41.8699 22.3750   8
  -9  19  -1 290.824 57.1133   1
  -9  19  -1 253.653 28.5038   4
  19 -10  -1 196.461 26.6297   6
 -19  10   1 276.994 31.0504   4
  -9  19  -1 153.312 30.8861   7
   9 -19  -2 53.2303 60.3106   3
 -10  -9   2 80.5624 31.9651   2
  -9  19   2 74.9805 20.4053   4
  10   9  -5 27.3829 24.1983   6
  10   9  -5 32.1858 27.2088   7
  -9  19   5 43.2453 23.1460   5
  10   9  -8 152.496 37.1593   6
  -9  19   8 193.674 35.8067   5
  10   9  -8 226.136 44.9133   7
 -19   9   8 57.8538 29.4697   5
  19  -9  -8 54.7109 48.8371   6
 -10  19  -5 200.226 41.6413   7
 -19   9   5 302.237 38.6038   4
  19  -9  -5 305.284 45.0414   6
 -19   9   5 257.137 39.1623   8
   9  10   5 245.740 43.2005   8
  19  -9  -2 22.0455 25.6020   1
 -19   9   2 73.6055 22.3299   4
 -19   9   2 85.5677 16.8900   8
   9  10   2 73.4555 21.0392   8
 -10  19  -2 47.7840 26.4468   7
 -19   9   2 70.7598 43.6921   3
   9  10  -1 132.010 24.5066   6
 -10  19   1 136.387 21.5552   4
   9  10  -4 135.739 27.1136   6
   9  10  -4 139.535 27.7601   7
   9  10  -7 53.3346 30.6983   6
 -10  19   7 31.6155 30.0410   5
   9  10  -7 90.2147 37.7392   7
 -19   9 -10 44.9147 41.0564   7
 -19   8   6 356.833 43.2477   5
 -11  19  -6 342.438 51.6316   7
  11 -19   3 5674.69 482.899   2
   8  11   3 4698.50 471.282   8
 -19   8   3 5061.86 471.058   4
 -19   8   3 5118.03 470.642   8
 -19   8   3 5983.46 478.582   3
  -8 -11  -3 3367.81 478.402   1
  -8 -11  -3 4230.38 479.174   3
  19  -8  -3 5074.99 471.544   6
 -11  19  -3 4761.00 472.566   7
   8  11   0 8698.84 581.494   1
 -11  19   0 6808.31 572.787   4
 -11  19   0 7746.10 581.986   1
 -19   8   0 6785.79 573.294   4
   8  11  -3 6870.34 613.378   6
   8  11  -3 7283.65 613.256   7
 -11  19   3 6066.92 613.930   8
  -8 -11   3 7830.76 622.231   2
  11 -19  -3 4684.58 621.990   1
  11 -19  -3 6046.59 620.692   3
 -11  19   3 5808.70 612.618   4
   8  11  -6 235.291 37.7598   7
   8  11  -6 181.518 34.1190   6
 -11  19   6 188.486 34.9836   5
   8  11  -9-5.24940 24.3346   6
   8  11  -9-35.0667 34.9458   7
  19  -7 -10 64.9089 28.2419   6
  19  -7  -7 1060.76 108.008   6
 -19   7   7 941.205 98.6826   5
 -12  19  -7 930.825 105.266   7
 -19   7   4 139.267 68.6086   3
  19  -7  -4 175.384 30.9296   6
   7  12   4 138.976 31.1130   8
 -19   7   4 148.065 27.9863   4
 -12  19  -4 153.640 35.2381   7
  19  -7  -1 1572.91 158.416   6
 -19   7   1 1653.87 158.767   4
 -12  19  -1 1867.34 171.633   1
 -12  19  -1 1329.13 159.231   7
   7  12   1 1910.77 158.523   8
   7  12  -2 46.6807 21.8986   6
 -12  19   2 38.6763 20.5056   4
 -12  19   2 50.8969 26.2874   8
  12 -19  -2 45.2503 54.4252   3
   7  12  -5 155.749 31.3960   6
 -12  19   5 177.573 40.3037   8
   7  12  -5 218.998 32.7757   7
   7  12  -8 82.9680 32.0721   6
 -12  19   8 101.388 31.9043   5
 -12  19   8 149.393 50.8223   8
   7  12  -8 146.132 44.5100   7
  19  -6  -8 258.694 49.5968   6
 -19   6   8 163.275 33.0842   5
 -13  19  -8 226.881 53.7811   7
   6  13   5 641.528 86.1551   8
 -13  19  -5 801.510 87.6685   7
 -19   6   2 1144.24 106.670   4
  19  -6  -2 1110.81 106.725   6
   6  13   2 1150.98 107.397   8
 -13  19  -2 890.098 108.459   7
 -13  19   1 31.0875 18.2410   4
 -13  19   1 16.6399 25.5052   8
   6  13  -1 27.7281 47.2459   1
  13 -19  -1 2.45058 49.8768   3
 -13  19   4 8.67317 24.5433   4
   6  13  -4 10.0805 22.9686   6
 -13  19   4-8.84153 30.7504   8
   6  13  -4 36.5691 22.3665   7
   6  13  -7 178.400 35.2673   6
 -13  19   7 141.972 45.6444   8
 -13  19   7 150.283 34.8675   5
   6  13  -7 215.771 43.6289   7
 -19   6 -10 105.457 44.5422   7
  19  -5  -9 49.2018 37.9665   6
 -14  19  -9 47.0097 48.4104   7
   5  14   6 18.7393 38.2987   8
 -19   5   6-13.8018 24.5775   5
 -14  19  -6 1.60730 39.7398   7
  -5 -14  -3 274.363 74.2758   3
  19  -5  -3 306.434 35.1467   6
   5  14   3 241.332 37.5705   8
  14 -19   3 282.071 51.6733   2
  -5 -14  -3 199.007 57.4180   1
 -14  19  -3 274.815 41.0710   7
 -19   5   3 319.805 35.0676   4
  19  -5   0 842.253 91.6708   6
 -14  19   0 904.424 102.665   1
   5  14   0 1111.83 108.618   1
 -14  19   0 934.240 93.1404   4
   5  14   0 1011.45 92.6930   8
 -19   5   0 1027.71 92.8894   4
   5  14  -3 2708.98 250.732   6
  -5 -14   3 3148.26 262.496   2
 -14  19   3 2604.24 251.089   8
   5  14  -3 2680.21 250.113   7
 -14  19   3 2489.01 249.750   4
   5  14  -6 1150.62 115.262   6
 -14  19   6 1046.86 114.916   5
 -14  19   6 1083.57 117.359   8
   5  14  -6 1283.54 116.487   7
   5  14  -9-17.8628 36.4491   7
  14 -19  -9 43.0057 41.5490   6
 -15  19 -10 0.85366 34.1590   7
  19  -4  -7 93.3949 42.9837   6
 -19   4   7 107.394 27.1826   5
 -15  19  -7 137.373 47.5013   7
 -19   4   4-3.73289 21.8501   4
  19  -4  -4 4.71272 23.6513   6
   4  15   4 37.1404 27.3376   8
 -15  19  -4 16.8556 32.7770   7
   4  15   1 260.475 31.2868   8
  19  -4  -1 263.840 30.4203   6
 -19   4   1 267.770 30.5188   4
 -15  19  -1 335.460 52.2023   1
 -15  19  -1 197.409 32.1124   7
   4  15  -2 717.507 68.6185   6
 -15  19   2 669.339 67.2471   4
 -15  19   2 568.823 68.4487   8
   4  15  -5 27.1382 26.3934   6
   4  15  -5 66.0680 28.1316   7
 -15  19   5 55.7082 33.2220   8
   4  15  -8 304.313 43.6010   6
   4  15  -8 382.891 53.6459   7
 -15  19   8 267.609 45.7355   5
 -16  19  -8 182.979 54.0691   7
 -19   3   8 156.996 28.6645   5
  19  -3  -8 169.561 45.9279   6
   3  16   5 161.500 36.1601   8
 -16  19  -5 135.936 41.6246   7
   3  16   2 93.0509 24.3700   8
  19  -3  -2 71.3578 18.8223   6
  16 -19   2 26.8167 30.9901   2
 -19   3   2 66.8107 19.0642   4
 -16  19  -2 43.5047 25.8754   7
   3  16  -1 282.240 59.7204   1
 -16  19   1 305.295 35.3373   4
 -16  19   1 244.476 35.0998   8
  16 -19  -1 287.244 52.2120   3
 -19   3  -1 230.876 45.7287   3
   3  16  -4 545.296 62.8828   6
 -16  19   4 582.508 64.3141   8
   3  16  -4 569.219 62.6811   7
 -16  19   4 606.188 62.6331   4
 -16  19   7 57.1005 40.7723   8
   3  16  -7 52.2607 30.5162   6
 -16  19   7 71.1309 32.4774   5
   3  16  -7 46.1434 39.5827   7
  19  -2  -9 12.8469 34.7072   6
 -17  19  -9 26.2952 48.2083   7
 -17  19  -6-40.6765 44.4575   7
 -19   2   6 21.5482 21.7184   5
   2  17   6 53.6433 38.5670   8
 -19   2   3 40.6774 19.9245   4
   2  17   3 31.4127 25.0514   8
  19  -2  -3 47.9716 19.5578   6
 -17  19  -3 31.0759 30.5442   7
  17 -19   3 30.6237 34.9874   2
  19  -2   0 2051.08 224.259   6
   2  17   0 3001.06 238.706   1
 -17  19   0 2426.04 225.347   4
 -19   2   0 2172.06 224.264   4
   2  17   0 2757.58 225.371   8
  17 -19   0 2702.22 227.868   3
   2  17  -3 5.73446 24.9747   6
 -17  19   3-9.10443 25.5878   8
  17 -19  -3 20.4284 49.6798   1
 -17  19   3 20.7025 24.8684   4
 -19   2  -3 41.6183 65.9101   1
   2  17  -3-7.10784 21.9720   7
   2  17  -6 63.7837 30.6989   6
 -17  19   6 27.3981 34.1865   8
   2  17  -6 19.8998 33.0531   7
  17 -19  -9 8.75792 41.2309   6
 -17  19   9-31.6030 28.0256   5
   2  17  -9 36.7560 36.8598   7
   1  18   7 139.705 46.4190   8
 -19   1   7 139.925 27.0456   5
  19  -1  -7 152.945 41.3996   6
 -18  19  -7 164.930 54.1842   7
  19  -1  -4 809.542 67.9312   6
   1  18   4 532.048 65.3113   5
 -18  19  -4 687.951 74.1598   7
   1  18   4 626.060 70.3294   8
  19  -1  -1 5606.71 460.655   6
 -18  19  -1 5697.07 465.906   1
  18 -19   1 4949.22 459.948   3
   1  18   1 5130.55 460.656   8
 -19   1   1 4990.19 459.679   4
 -18  19   2 1286.89 124.994   4
 -18  19   2 1268.48 124.924   8
 -19   1  -2 1232.08 133.280   3
 -18  19   5 362.256 52.7834   8
   1  18  -5 450.748 53.6558   6
   1  18  -5 411.291 52.2594   7
 -18  19   5 489.064 54.0636   4
   1  18  -8 165.840 43.4638   7
 -18  19   8 128.190 35.3388   5
  19   0  -8 470.030 67.5704   6
 -19  19  -8 676.048 79.6314   7
   0  19   5 719.508 84.6392   8
 -19  19  -5 682.920 89.5856   7
 -19   0   5 828.658 78.8292   5
 -19   0   2 378.490 40.7320   4
  19   0  -2 390.051 42.7775   6
  19 -19   2 432.926 52.4366   2
   0  19   2 475.962 45.9994   8
  19   0  -2 328.565 47.1187   1
 -19  19  -2 294.857 45.2240   7
 -19  19  -2 462.066 58.7368   1
 -19  19   1 953.596 100.233   8
 -19  19   1 1057.29 101.535   4
   0  19  -1 1248.88 119.817   1
   0  19  -4 39.0901 32.0367   6
 -19  19   4 31.9269 30.2123   4
   0  19  -4 65.2461 26.0684   7
 -19  19   4 60.8572 28.2657   8
   0  19  -7 523.930 69.1982   7
 -19  19   7 581.826 68.5236   8
  20 -19  -9-17.6153 39.6321   6
  -1  20  -9 5.59408 37.5993   7
 -20  19   6 8.10666 34.9787   8
  -1  20  -6-0.46101 33.9045   7
 -20  19   3 228.267 36.5503   4
 -20  19   3 247.790 34.9561   8
  -1  20  -3 212.842 34.9144   7
 -19  -1   0 42.4468 15.7129   4
 -20  19   0 69.3582 24.4541   4
  19   1   0 67.6989 17.3896   6
  -1  20   0 82.1280 51.1177   1
 -20  19   0 48.3868 21.4563   8
  -1  20   0 49.4856 23.6659   8
  19   1  -3 570.547 53.6039   6
  -1  20   3 474.437 58.1292   8
  -1  20   3 406.444 50.7512   5
 -20  19  -3 489.403 58.7540   7
 -19  -1   3 563.774 51.4179   4
 -20  19  -6 52.1661 51.3879   7
  -1  20   6 60.7384 39.0858   8
 -19  -1   6 8.93536 18.7936   5
  19   1  -9 101.327 34.3431   6
 -20  19  -9 144.985 50.8377   7
 -20  18   7 199.384 44.0226   8
  -2  20  -7 171.970 45.6047   7
 -20  18   4 609.864 65.7035   8
  -2  20  -4 592.955 66.1171   7
 -20  18   1 3053.50 280.554   4
 -20  18   1 2761.02 279.638   8
  -2  20  -1 3474.31 294.337   1
  18   2  -2 2108.15 187.599   6
  20 -18   2 1665.85 191.008   2
  -2  20   2 1928.87 188.714   8
 -20  18  -2 1963.24 193.575   1
  18   2  -2 2484.65 193.466   1
 -18  -2   2 1988.68 186.027   4
 -20  18  -2 1597.36 187.880   7
  -2  20   5 722.283 90.4243   8
 -18  -2   5 1058.84 84.1608   5
 -20  18  -5 913.756 98.1649   7
  -2  20   5 622.837 84.5993   5
  18   2  -8 91.7933 40.1836   6
 -20  18  -8 230.379 59.6648   7
  20 -17  -8-1.96837 48.5652   6
 -20  17   8 14.4522 32.0298   5
  -3  20  -8-2.81991 42.5311   7
 -20  17   5 687.758 74.0733   8
  -3  20  -5 684.942 74.7485   7
 -20  17   2 144.407 26.7064   8
 -17  -3  -2 116.951 52.4310   3
  17   3  -1 93.5170 20.4357   6
  20 -17   1 62.1938 25.8335   2
  -3  20   1 81.3877 25.9521   8
 -17  -3   1 144.473 27.9677   2
  -3  20   4 306.265 45.1415   8
  -3  20   4 219.142 35.5059   5
 -17  -3   4 353.622 33.4892   5
 -20  17  -4 250.008 51.7712   7
 -20  17  -7 97.8487 65.1411   7
  -3  20   7 17.2612 45.7401   8
  17   3  -7 68.0047 36.6798   6
 -20  16   9 134.592 32.5896   5
  -4  20  -9 171.824 43.0007   7
  20 -16  -9 132.317 43.8881   6
 -20  16   6 494.113 59.0784   8
  -4  20  -6 443.310 58.9536   7
  20 -16  -3 187.325 51.4167   1
 -20  16   3 299.458 36.5107   8
 -16  -4  -3 298.661 57.7458   3
 -16  -4  -3 333.328 88.2360   1
  16   4   0 185.968 26.0459   6
 -20  16   0 198.108 26.9677   8
 -20  16  -3 18.0939 33.5829   7
  -4  20   3 12.0901 17.0950   5
  16   4  -3 28.5576 20.2407   6
  -4  20   3 22.6349 31.7428   8
  16   4  -6 25.3990 29.1825   6
  -4  20   6 16.3818 38.5414   8
 -16  -4   6-0.79390 16.9107   5
  -4  20   6 6.02428 25.3746   5
  16   4  -9 135.161 34.3194   6
 -20  16  -9 184.650 54.2193   7
 -20  15   7 42.2754 31.5077   5
  -5  20  -7-5.26837 39.0959   7
 -15  -5  -4 308.062 88.2603   1
 -20  15   4 355.523 43.4719   4
 -20  15   4 275.915 40.7238   8
 -20  15   1 22.0975 18.1696   8
  15   5  -2 2019.44 174.987   6
   5 -20  -2 1936.39 193.357   3
  -5  20   2 1788.00 176.206   8
 -20  15  -2 1366.03 174.893   7
  15   5  -5 1101.91 101.462   6
  -5  20   5 855.746 104.623   8
 -15  -5   5 1059.50 98.1982   5
  -5  20   5 756.410 99.6822   5
  15   5  -5 1184.34 101.282   7
 -20  15  -8 149.182 67.4535   7
  15   5  -8 107.636 36.5523   6
  -5  20   8 122.435 51.5791   8
  20 -14  -8 193.759 52.1886   6
  -6  20  -8 110.292 45.8039   7
 -20  14   8 145.435 35.6341   5
 -20  14   5 5.98351 28.3142   8
 -20  14   5 9.96255 30.9564   4
 -20  14   2 139.655 24.5889   8
  -6  20  -2 145.551 28.7605   7
 -20  14   2 137.096 28.4459   4
  14   6  -1 446.350 47.7847   6
  14   6  -1 537.198 58.3723   1
  -6  20   1 387.052 51.2175   8
  -6  20   1 453.319 46.2132   4
  -6  20   4 462.193 59.7315   8
  -6  20   4 400.348 52.7366   5
  -6  20   7 21.3163 27.5970   5
  -6  20   7 60.5998 47.1402   8
  14   6  -7-3.14275 32.9163   6
 -20  14 -10 83.6112 38.3591   7
  20 -13  -9 231.539 45.6969   6
 -20  13   9 175.152 34.7765   5
  -7  20  -9 257.724 50.2461   7
 -20  13   6 57.4055 35.1146   8
 -13  -7  -3 268.169 61.2717   3
 -13  -7  -3 235.002 66.9821   1
 -20  13   3 261.779 31.6096   8
 -20  13   3 245.753 34.5667   4
  20 -13  -3 167.703 37.9594   2
  -7  20  -3 258.147 37.0598   7
  20 -13  -3 167.050 43.6947   1
  13   7   0 40.3281 18.7448   6
 -20  13   0 37.3940 23.0292   4
  -7  20   0-2.04425 50.3265   1
  20 -13   0 22.0184 13.5829   6
 -20  13   0 54.3256 17.9320   8
  -7  20   0 52.9519 13.8493   4
 -13  -7   3 89.7579 34.9997   2
  -7  20   3 69.7311 33.2876   8
   7 -20  -3 20.3123 65.9149   3
  13   7  -6 17.1551 27.8635   6
  -7  20   6-0.47547 40.6753   8
  13   7  -6 8.98954 30.3155   7
  -7  20   6 33.9722 25.9856   5
 -20  13  -9 63.1052 55.1868   7
  13   7  -9 14.2327 27.6425   6
  20 -12 -10 14.5839 27.2484   6
  -8  20 -10 8.63118 31.5741   7
 -20  12   7 24.7336 30.4783   5
 -20  12   4 311.520 40.1515   8
  12   8   4 331.419 45.7203   8
  -8  20  -4 308.192 45.1420   7
 -20  12   4 368.783 43.4225   4
  -8  20  -1 26.3447 14.9848   4
  -8  20  -1 7.76231 52.6826   1
 -20  12   1 50.1605 23.0338   4
 -20  12   1 24.1944 17.1640   8
   8 -20  -2 690.097 96.5952   3
  12   8  -2 746.823 69.4349   6
 -12  -8   2 869.145 77.7331   2
  -8  20   2 532.367 71.4251   8
  -8  20   2 644.421 68.0288   4
  12   8  -5 119.209 27.0345   6
  -8  20   5 102.941 39.1476   8
  12   8  -5 129.478 28.4242   7
  -8  20   5 47.0141 25.7341   5
  -8  20   8 87.5951 51.2381   8
  12   8  -8 32.4075 31.8456   6
  20 -11  -8 72.2266 49.4427   6
 -20  11   8 34.7610 28.5030   5
 -20  11   5 421.902 52.9613   8
  -9  20  -5 390.987 55.3551   7
 -20  11   5 499.017 52.9910   4
 -20  11   2 1791.84 172.730   4
 -20  11   2 1860.74 171.864   8
  -9  20  -2 1633.82 173.666   7
  -9  20   1 6662.86 676.584   4
  11   9  -1 7412.53 677.593   6
  11   9  -4 2853.94 280.418   6
  11   9  -4 2964.38 280.046   7
  11   9  -7 204.901 39.6848   6
  -9  20   7 199.596 36.4628   5
  11   9  -7 283.732 43.4548   7
 -20  11 -10 38.1544 37.3553   7
  20 -10  -9 106.634 40.2602   6
 -10  20  -6 807.994 88.7057   7
 -20  10   3 4887.91 444.294   4
  20 -10  -3 3249.21 446.496   1
  10 -20   3 5502.59 457.270   2
 -20  10   3 4703.13 443.624   8
 -10 -10  -3 4346.40 452.868   3
  10  10   3 4896.82 444.301   8
 -20  10   3 5481.67 452.046   3
 -10 -10  -3 3975.19 454.420   1
 -10  20  -3 4732.32 445.768   7
 -10  20   0 1327.66 107.290   4
 -10  20   0 1525.43 124.586   1
 -20  10   0 1242.01 108.767   4
 -10  20   3 42.0278 21.5492   4
  10  10  -3 14.7760 21.3878   6
  10  10  -3 37.4081 21.5646   7
  10 -20  -3 16.8646 63.7572   3
 -10 -10   3 17.3132 35.3842   2
  10 -20  -3 56.0507 56.2824   1
  10  10  -6 160.545 34.1144   6
 -10  20   6 201.977 33.6051   5
  10  10  -6 244.402 38.8485   7
 -20  10  -9 275.954 62.8420   7
  10  10  -9 147.431 31.5177   6
 -11  20 -10 81.8493 35.0793   7
  20  -9  -7 315.158 57.5055   6
 -20   9   7 279.110 42.4820   5
 -11  20  -7 347.720 54.5641   7
  20  -9  -4 871.027 89.3977   6
 -20   9   4 853.975 87.1865   8
   9  11   4 716.997 88.7879   8
 -20   9   4 1033.94 112.910   3
 -11  20  -4 873.465 90.5327   7
 -20   9   4 944.307 87.6916   4
  20  -9  -1 33.5450 15.9138   6
 -11  20  -1 28.3601 49.4221   1
 -11  20  -1 48.9660 20.0399   4
   9  11   1 71.2662 19.6904   8
 -11  20  -1 49.2218 22.4289   7
 -20   9   1 44.7265 21.5921   4
 -11  20   2 554.206 57.3570   4
  11 -20  -2 540.230 82.8962   3
   9  11  -5 79.8002 25.6803   6
   9  11  -5 62.2119 28.1885   7
   9  11  -8 153.212 36.1542   6
   9  11  -8 254.211 42.9298   7
 -11  20   8 181.129 35.5579   5
 -20   8   8 241.180 38.3481   5
  20  -8  -8 289.812 53.9561   6
 -12  20  -8 297.722 55.7066   7
  20  -8  -5 114.536 34.9129   6
   8  12   5 109.940 35.3959   8
 -12  20  -5 106.993 37.2632   7
   8  12   2 145.416 24.9701   8
  20  -8  -2 144.609 22.7618   6
 -20   8   2 139.186 24.7317   4
 -20   8   2 188.933 48.3549   3
 -12  20  -2 78.7905 30.3886   7
  12 -20  -1 428.590 72.7400   3
 -12  20   1 439.508 47.1141   4
   8  12  -1 523.134 66.2412   1
 -12  20   1 435.915 51.4864   8
   8  12  -4 2523.25 236.270   6
 -12  20   4 2378.11 235.740   4
 -12  20   4 2298.86 237.414   8
   8  12  -4 2547.73 235.923   7
   8  12  -7 601.893 81.0279   6
 -12  20   7 858.067 88.8609   8
 -12  20   7 708.876 81.2678   5
   8  12  -7 981.901 85.5221   7
 -20   8 -10 41.3494 40.2218   7
  20  -7  -9 98.3120 38.8419   6
 -13  20  -9 55.9951 45.9917   7
   7  13   6 54.0445 39.9856   8
 -20   7   6-3.49451 24.2798   5
 -13  20  -6-42.7838 38.3755   7
 -20   7   3 616.677 60.3202   4
  20  -7  -3 550.887 60.0371   6
  13 -20   3 654.951 78.3033   2
  -7 -13  -3 326.753 77.7913   1
   7  13   3 606.022 61.9958   8
 -20   7   3 770.478 86.2459   3
 -13  20  -3 549.081 64.6202   7
  -7 -13  -3 444.533 89.5256   3
  20  -7   0 558.294 64.8780   6
   7  13   0 763.086 82.5583   1
 -13  20   0 696.578 80.9493   1
 -13  20   0 686.831 66.7153   4
 -20   7   0 630.028 66.9977   4
   7  13   0 782.461 66.0857   8
 -13  20   3 143.650 26.9450   4
   7  13  -3 151.867 26.7953   6
  13 -20  -3 148.523 60.6307   1
 -13  20   3 136.791 34.1046   8
  -7 -13   3 219.245 46.1068   2
   7  13  -3 151.034 26.8612   7
   7  13  -6 390.007 47.5985   6
 -13  20   6 413.517 55.7034   8
 -13  20   6 325.166 47.0758   5
   7  13  -6 420.525 51.7589   7
   7  13  -9 223.423 44.2893   7
  13 -20  -9 251.594 49.4708   6
 -14  20 -10 117.980 38.0780   7
  20  -6  -7 5.96480 43.2622   6
 -14  20  -7 24.1007 45.3079   7
 -20   6   7 12.4382 24.3793   5
 -20   6   4 91.2498 25.3439   4
  20  -6  -4 105.779 27.4243   6
   6  14   4 82.3265 29.5038   8
 -20   6   4 165.768 70.6484   3
 -14  20  -4 109.867 34.8546   7
 -14  20  -1 178.586 32.4604   7
  20  -6  -1 231.460 30.0149   6
 -14  20  -1 244.282 53.1914   1
 -20   6   1 281.757 31.1152   4
 -14  20  -1 279.261 33.7160   4
   6  14   1 315.014 32.3681   8
 -14  20   2 409.349 46.4994   4
   6  14  -2 434.094 47.3433   6
 -14  20   2 401.190 48.9924   8
  14 -20  -2 433.304 69.2119   3
   6  14  -5 562.371 60.2586   6
 -14  20   5 481.816 64.3924   8
   6  14  -5 559.081 61.1923   7
 -14  20   8 152.716 50.3619   8
 -14  20   8 142.041 34.1093   5
   6  14  -8 143.346 42.0800   7
   6  14  -8 74.0674 31.7420   6
  20  -5  -8 57.2419 42.9504   6
 -20   5   8 40.6137 24.4733   5
  20  -5  -5 157.014 34.2236   6
   5  15   5 109.178 35.4690   8
 -15  20  -5 98.8535 39.2781   7
 -15  20  -2 49.2511 26.4155   7
  20  -5  -2 26.1106 18.3436   6
   5  15   2 34.3149 23.4874   8
 -20   5   2 37.6062 18.8598   4
 -15  20   1 650.531 68.4494   8
 -15  20   1 635.356 66.6907   4
   5  15  -1 799.034 85.6493   1
   5  15  -4 51.5030 24.5713   7
 -15  20   4 70.6176 26.9179   4
   5  15  -4 48.0119 25.2533   6
 -15  20   4 42.6623 30.9854   8
   5  15  -7 37.2051 30.1121   6
 -15  20   7-23.3366 43.2278   8
 -15  20   7 29.9531 30.3843   5
   5  15  -7 54.9784 37.2478   7
  20  -4  -9 179.886 41.7403   6
 -16  20  -9 155.080 49.8878   7
   4  16   6 161.829 45.1731   8
 -20   4   6 226.302 31.8939   5
 -16  20  -6 182.214 47.1160   7
  20  -4  -3 2411.58 225.906   6
  16 -20   3 2286.29 235.246   2
 -16  20  -3 2131.05 227.918   7
   4  16   3 2320.78 226.553   8
 -20   4   3 2423.72 225.361   4
  20  -4   0 6390.61 658.185   6
   4  16   0 7427.22 658.587   8
   4  16   0 8225.98 668.442   1
 -20   4   0 6820.21 658.354   4
 -16  20   0 6981.24 658.717   4
  16 -20   0 6944.65 661.228   3
 -16  20   3 1561.28 159.004   4
   4  16  -3 1764.78 159.928   6
 -16  20   3 1662.89 160.511   8
   4  16  -3 1735.06 159.223   7
 -16  20   6 1004.17 110.505   8
   4  16  -6 1106.46 110.240   7
   4  16  -6 1069.72 108.977   6
  16 -20  -9-5.46417 42.0440   6
   4  16  -9 0.90932 35.9163   7
  20  -3  -7 952.149 109.152   6
   3  17   7 908.756 110.506   8
 -20   3   7 1037.32 102.069   5
 -17  20  -7 1145.20 113.513   7
 -20   3   4 153.838 26.2347   4
   3  17   4 117.001 32.8306   8
  20  -3  -4 127.009 28.0107   6
 -17  20  -4 109.889 37.8853   7
 -17  20  -1 2293.44 209.717   1
 -20   3   1 2074.87 201.492   4
  20  -3  -1 2280.88 202.377   6
   3  17   1 2429.59 202.554   8
 -17  20  -1 1540.09 202.059   7
 -17  20  -1 2307.36 203.073   4
 -17  20   2 12.1035 22.1578   4
 -17  20   2-5.10249 25.3809   8
 -17  20   5 47.5245 31.3012   4
   3  17  -5 19.3145 27.0121   6
 -17  20   5 63.1953 33.3431   8
   3  17  -5 63.9258 28.6113   7
   3  17  -8 19.5230 37.6143   7
 -17  20   8 37.9083 31.7024   5
  20  -2  -8 454.263 64.3283   6
 -18  20  -8 495.927 72.9317   7
  20  -2  -5 411.096 51.2173   6
 -20   2   5 445.865 46.1678   5
   2  18   5 330.401 54.3887   8
 -18  20  -5 446.588 60.1304   7
 -20   2   2 831.529 81.6668   4
  20  -2  -2 865.522 82.4862   6
  18 -20   2 745.323 91.6333   2
   2  18   2 906.850 84.6359   8
 -18  20  -2 694.742 84.5161   7
 -18  20  -2 921.230 96.6880   1
 -18  20   1 591.179 63.2368   8
 -20   2  -1 551.966 73.0741   3
 -18  20   1 647.609 64.2137   4
   2  18  -1 639.011 82.5157   1
   2  18  -4 40.9286 28.0852   6
 -18  20   4 58.6211 29.8444   4
   2  18  -4 57.2962 24.4782   7
 -18  20   4 70.4721 29.6281   8
   2  18  -7 40.1964 34.6387   6
 -18  20   7 14.1513 40.0869   8
 -18  20   7 11.6109 31.4769   5
   2  18  -7 8.77722 36.5270   7
 -19  20  -9 98.2492 50.2433   7
  20  -1  -9 68.3973 33.8589   6
   1  19   6 233.478 46.8366   8
 -20   1   6 223.191 31.2549   5
 -19  20  -6 224.598 54.9504   7
 -20   1   3 181.015 25.2773   4
  20  -1  -3 195.811 27.3288   6
   1  19   3 133.465 32.9485   8
 -19  20  -3 184.922 37.7066   7
  19 -20   3 140.314 39.4224   2
  20  -1   0 1039.09 110.275   6
   1  19   0 1346.94 128.285   1
 -20   1   0 1101.53 109.905   4
 -19  20   0 1190.15 111.885   4
 -19  20   0 1074.63 111.407   8
   1  19   0 1302.79 111.747   8
 -19  20   3 897.780 83.2476   4
 -19  20   3 726.426 83.0086   8
   1  19  -3 782.152 82.1077   7
   1  19  -6 311.793 45.1913   6
   1  19  -6 227.242 43.2268   7
 -19  20   6 218.254 43.9124   8
  19 -20  -9 160.815 42.7291   6
 -19  20   9 137.572 32.1367   5
   1  19  -9 154.131 40.5197   7
  20   0  -7 1.04848 38.5251   6
   0  20   7-29.2771 44.0212   8
 -20   0   7 14.2212 19.1926   5
 -20  20  -7 12.9581 54.3916   7
   0  20   4 7.44988 32.1294   8
   0  20   4 39.6995 17.2814   5
  20   0  -4 21.9015 22.2998   6
 -20  20  -4 66.6423 38.4198   7
 -20   0   1 1412.26 134.239   4
  20   0  -1 1640.32 135.763   6
 -20  20  -1 1653.68 143.071   1
 -20  20  -1 1574.09 137.056   4
   0  20   1 1555.43 136.301   8
 -20  20   2 1587.90 150.008   4
 -20   0  -2 1381.89 157.703   3
 -20  20   2 1529.79 149.462   8
 -20  20   5-9.53336 34.0428   4
 -20  20   5-36.1919 32.7842   8
   0  20  -5 2.31877 28.6806   7
  20 -20  -8 59.6674 45.8933   6
   0  20  -8-1.43384 35.3468   7
 -21  20   7 408.113 56.0210   8
  -1  21  -7 338.298 52.0681   7
  -1  21  -4 218.690 37.2812   7
 -21  20   4 222.225 39.5869   8
 -21  20   1 59.4597 21.2435   8
 -21  20   1 64.8930 26.1480   4
 -20  -1  -1 42.6622 20.7898   4
  20   1  -2 593.553 57.8496   6
 -21  20  -2 432.679 59.0194   7
  21 -20   2 435.906 64.6831   2
  -1  21   2 579.385 61.0417   8
 -21  20  -2 656.808 70.4151   1
 -20  -1   2 588.987 55.8118   4
  -1  21   5 29.4738 36.4572   8
 -20  -1   5 12.1946 16.5450   5
 -21  20  -5 49.7908 46.3289   7
  20   1  -8 42.3588 37.7048   6
 -21  20  -8 35.3473 55.2804   7
  21 -19  -8 205.978 51.7174   6
  -2  21  -8 181.606 42.6208   7
  -2  21  -5 223.601 39.2257   7
 -21  19   5 226.263 39.3289   8
 -21  19   2 546.738 57.4356   4
 -21  19   2 491.562 55.7583   8
 -19  -2  -2 487.863 74.1261   3
  19   2  -1 882.236 79.6575   6
  21 -19   1 647.976 83.7731   2
 -21  19  -1 796.827 81.3186   4
  -2  21   1 774.143 80.8241   8
 -19  -2   4 7.83518 14.3456   5
  -2  21   4 15.4470 18.0475   5
  -2  21   4 8.32444 33.5061   8
  19   2  -4 9.71801 23.8982   6
 -21  19  -4-12.6165 40.3677   7
  19   2  -7 30.6250 35.6705   6
  -2  21   7 14.9058 45.9141   8
 -21  19  -7 4.63208 59.5600   7
 -21  18   9 275.495 41.7439   5
  21 -18  -9 324.415 51.8238   6
  -3  21  -9 329.878 48.3994   7
 -21  18   6 206.878 41.7093   8
  -3  21  -6 185.068 41.5761   7
 -18  -3  -3 461.566 71.8235   3
 -21  18   3 504.206 54.8913   8
  18   3   0 19.9944 16.6883   6
 -21  18   0 70.4219 24.7019   4
  -3  21   0 34.5083 52.4820   1
 -21  18   0 56.5306 20.3978   8
  -3  21   0 41.6813 23.8942   8
 -18  -3   0 13.5740 19.0052   2
  18   3  -3 121.870 25.4855   6
  -3  21   3 174.582 36.1234   8
  -3  21   3 139.829 21.8595   5
 -21  18  -3 141.406 36.0658   7
 -21  18  -6 363.993 66.8054   7
  18   3  -6 229.255 42.2026   6
 -18  -3   6 275.660 32.5340   5
  -3  21   6 270.021 50.2142   8
  18   3  -9 182.212 36.9313   6
 -21  18  -9 248.792 56.1582   7
 -21  17   7 33.6649 32.9798   5
  -4  21  -7 18.5631 40.2096   7
 -21  17   4 184.841 33.5182   8
 -21  17   1 19.6784 19.2798   8
  17   4  -2 0.24047 18.9316   6
  -4  21   2 24.3493 28.2688   8
 -21  17  -2 42.8254 32.0454   1
  17   4  -2 34.6151 37.7930   1
 -21  17  -2 5.00904 21.7942   7
 -21  17  -5 163.523 55.5139   7
 -17  -4   5 188.800 23.3967   5
  -4  21   5 163.374 42.4755   8
  -4  21   5 124.897 28.1883   5
  17   4  -8 6.09691 33.0569   6
 -21  17  -8-0.78864 57.9235   7
  21 -16  -8 53.7020 47.7839   6
  -5  21  -8 52.3477 43.3963   7
 -21  16   8 53.9357 31.7352   5
 -21  16   5 85.2633 34.0601   4
 -21  16   5 59.4005 30.6967   8
 -16  -5  -2 89.4891 57.6612   3
 -21  16   2 55.3157 22.8745   8
  -5  21  -2 43.6272 24.9325   7
  16   5  -1-1.28412 17.5996   6
 -16  -5   1 2.52547 24.8240   2
  -5  21   1 1.51518 25.8154   8
  21 -16   1 4.30410 16.6398   2
  -5  21   4-7.66534 34.8752   8
  -5  21   4 0.29506 19.1167   5
 -21  16  -7 12.4565 67.4952   7
  -5  21   7 22.3761 47.0306   8
  16   5  -7 15.7139 32.8927   6
  21 -15  -9 23.6680 38.3327   6
 -21  15   9 15.3786 26.3445   5
  -6  21  -9-34.0051 38.9995   7
 -21  15   6 34.8209 35.5856   8
  -6  21  -6 24.7343 33.2418   7
 -21  15   3 1236.56 117.743   4
  21 -15  -3 854.403 120.865   2
 -21  15   3 1343.56 116.399   8
  21 -15  -3 857.871 123.166   1
  -6  21  -3 1276.29 118.385   7
 -15  -6  -3 1149.97 128.565   3
 -15  -6  -3 1371.17 149.090   1
  15   6   0 127.483 22.5444   6
  -6  21   0 196.075 55.2118   1
 -21  15   0 152.800 22.1037   8
  21 -15   0 74.3882 15.9434   2
  15   6  -3 563.050 56.3989   6
  -6  21   3 450.602 62.5034   8
  -6  21   6 218.189 47.6860   8
  15   6  -6 176.460 34.6543   6
  -6  21   6 155.637 31.5957   5
  15   6  -9 26.0181 28.2132   6
 -21  15  -9 67.4026 52.7458   7
 -21  14   7 81.1622 31.3279   5
  -7  21  -7 97.3894 40.6914   7
 -21  14   4 1181.17 119.666   8
 -21  14   4 1243.78 120.924   4
 -21  14   1 1812.47 124.458   4
  -7  21  -1 1558.98 121.239   4
 -21  14   1 2137.96 123.058   8
  -7  21  -1 2418.07 147.945   1
  14   7  -2 2639.14 211.901   6
 -14  -7   2 3001.08 218.922   2
  -7  21   2 1969.66 212.670   8
 -21  14  -2 1972.55 213.249   1
   7 -21  -2 2329.01 227.173   3
 -21  14  -2 1856.49 211.825   7
  -7  21   2 2179.54 210.590   4
  14   7  -5 113.069 27.7490   6
  -7  21   5 107.325 27.0374   5
  14   7  -5 160.037 30.1219   7
  -7  21   5 90.5587 42.2691   8
  -7  21   8 109.976 53.6080   8
  14   7  -8 146.539 36.2961   6
  21 -13  -8 8.06843 49.1121   6
  -8  21  -8 61.9730 41.9034   7
 -21  13   8 28.0947 29.5694   5
 -21  13   5 61.3852 31.8996   4
 -21  13   5 10.9388 30.2318   8
 -21  13   2 2487.29 217.028   4
 -21  13   2 2789.26 216.308   8
  -8  21  -2 2503.07 217.764   7
  -8  21   1 500.265 56.2238   4
  13   8  -1 622.245 58.4594   6
  13   8  -1 730.817 70.6143   1
  -8  21   1 545.705 61.8923   8
  -8  21   4-6.59778 34.9615   8
  13   8  -4 43.3941 24.2726   7
  13   8  -4 30.2394 22.6562   6
  13   8  -7 27.7469 31.1916   6
  -8  21   7-8.63277 47.1236   8
  13   8  -7-10.8641 32.4864   7
  -8  21   7 27.1718 27.0007   5
  -9  21  -9 232.282 49.2957   7
  21 -12  -9 217.446 44.5912   6
 -21  12   9 167.158 32.1975   5
  21 -12  -6 20.1316 44.9514   6
 -21  12   3 538.052 50.2701   4
  12   9   3 447.182 50.2359   8
  21 -12  -3 282.541 49.0208   2
 -12  -9  -3 323.986 73.7806   1
 -21  12   3 507.055 48.3601   8
  -9  21  -3 547.052 54.2100   7
 -12  -9  -3 366.559 74.9867   3
  21 -12  -3 347.207 55.8561   1
  -9  21   0 2098.57 161.462   1
  -9  21   0 1636.37 143.119   4
 -21  12   0 1738.90 144.975   4
  -9  21   3 582.506 69.7461   8
 -12  -9   3 737.507 76.2883   2
  -9  21   3 600.593 64.0441   4
  12   9  -6 33.6018 30.0101   7
  12   9  -6-11.6713 27.4917   6
  -9  21   6 37.5829 41.7614   8
  -9  21   6 33.9483 25.7792   5
 -21  12  -9 193.836 59.4659   7
  12   9  -9 108.813 29.7687   6
 -10  21 -10 261.903 41.4672   7
 -21  11   7 28.3301 28.4993   5
  11  10   4 565.109 70.0218   8
 -21  11   4 696.611 68.0821   8
 -10  21  -4 534.996 70.9718   7
 -21  11   4 714.121 68.6860   4
  21 -11  -1 184.313 26.8942   6
 -10  21  -1 217.150 27.5766   4
 -10  21  -1 220.349 57.6552   1
 -21  11   1 267.804 31.4302   4
 -21  11  -2 33.2161 17.1062   1
 -10  21   2 66.9086 20.0269   4
 -11 -10   2 73.9561 31.9228   2
  10 -21  -2 104.581 61.8773   3
  11  10  -5 2298.86 202.623   6
  11  10  -5 2321.44 202.604   7
 -10  21   5 1702.54 201.829   5
  11  10  -8 71.8168 31.6432   6
 -10  21   8 109.011 30.0574   5
  11  10  -8 96.9295 37.5812   7
  21 -10  -8 146.880 50.2706   6
 -21  10   8 152.349 32.0363   5
 -21  10   5 209.321 36.4466   4
  21 -10  -5 263.585 43.9770   6
  10  11   5 241.134 43.9618   8
 -11  21  -5 189.111 41.9207   7
 -21  10   2 6.55316 46.1963   3
 -11  21  -2 25.1849 25.4663   7
  21 -10  -2 10.1482 18.5717   6
 -21  10   2 4.72608 21.4329   4
  10  11   2 6.34322 20.6333   8
  10  11  -1 29.9049 20.5485   6
  10  11  -1 19.1010 41.6734   1
 -11  21   1 10.8114 17.7479   4
  10  11  -4 217.023 33.4994   6
  10  11  -4 262.599 34.1707   7
  10  11  -7 50.4269 32.5968   6
 -11  21   7 83.8688 29.1769   5
  10  11  -7 127.499 36.0371   7
  21  -9  -9 352.402 53.1608   6
 -12  21  -6 55.5735 38.9211   7
 -21   9   3 1536.41 146.389   4
  21  -9  -3 1492.66 146.743   6
   9  12   3 1488.13 146.912   8
 -21   9   3 1519.16 145.900   8
 -21   9   3 1790.12 160.964   3
 -12  21  -3 1524.34 149.203   7
  -9 -12  -3 1037.07 159.501   1
 -12  21   0 30.0260 45.1797   1
 -21   9   0 35.1522 21.4542   4
   9  12   0 46.8094 15.0986   8
  21  -9   0 39.4857 13.6389   6
 -12  21   0 36.3693 18.4684   4
   9  12  -3 2187.68 208.788   6
  -9 -12   3 2304.52 218.423   2
 -12  21   3 1999.91 210.234   8
  12 -21  -3 1960.80 221.122   3
 -12  21   3 2044.23 207.919   4
   9  12  -3 2402.84 208.919   7
   9  12  -6 63.6782 28.2875   6
 -12  21   6 73.7969 28.9312   5
   9  12  -6 109.324 32.1159   7
   9  12  -9 108.631 28.1462   6
 -21   8   7 276.877 39.2830   5
 -13  21  -7 289.854 54.6826   7
   8  13   4 29.8331 28.7937   8
 -21   8   4 45.6553 24.6183   4
  21  -8  -4 42.0280 26.5792   6
 -13  21  -4 67.6674 34.4465   7
  21  -8  -1 805.779 90.9715   6
 -21   8   1 1016.33 92.2809   4
   8  13   1 1094.79 91.9661   8
 -21   8   1 1173.28 95.3631   3
 -13  21  -1 1131.57 108.678   1
 -13  21  -1 914.436 92.1972   4
 -13  21  -1 673.257 92.6236   7
 -13  21   2 1031.18 102.431   4
 -13  21   2 1032.72 104.854   8
  13 -21  -2 1125.68 118.586   3
 -13  21   5 16.0413 36.6006   8
   8  13  -5 4.01479 24.9400   6
   8  13  -5 29.5766 25.9038   7
   8  13  -8 36.8086 29.7873   6
 -13  21   8 71.7279 49.0979   8
 -13  21   8 39.5717 28.9467   5
   8  13  -8 59.1526 37.2756   7
 -21   7   8 52.4528 25.1905   5
  21  -7  -8 64.2761 44.4312   6
 -14  21  -8 2.56471 48.3456   7
   7  14   5 1062.71 116.186   8
 -14  21  -5 935.313 116.737   7
 -21   7   2 2971.24 275.137   4
  21  -7  -2 2809.17 275.414   6
 -14  21  -2 2280.63 276.284   7
   7  14   2 3004.74 275.534   8
 -14  21   1 5064.79 463.372   8
 -14  21   1 4626.00 461.915   4
   7  14  -1 5773.49 471.724   1
  14 -21  -1 4677.68 467.535   3
   7  14  -4 2926.86 283.997   6
 -14  21   4 2985.35 285.179   8
   7  14  -4 3057.22 283.830   7
 -14  21   4 2840.77 283.553   4
   7  14  -7 108.501 32.0263   6
   7  14  -7 167.067 38.7389   7
 -14  21   7 102.489 46.7516   8
 -14  21   7 84.6845 30.8117   5
  21  -6  -9 292.430 48.5772   6
 -15  21  -9 284.579 53.8407   7
   6  15   6 1048.69 110.030   8
 -21   6   6 1031.66 104.653   5
 -15  21  -6 1032.32 111.014   7
  21  -6  -3 60.4559 21.7405   6
 -21   6   3 59.0435 21.5442   4
   6  15   3 22.6642 25.9556   8
  15 -21   3 49.3420 42.0153   2
 -21   6   3 88.1913 63.0086   3
 -15  21  -3 35.0095 32.3163   7
  21  -6   0 1323.73 156.116   6
 -15  21   0 1774.45 157.356   4
 -21   6   0 1514.46 157.000   4
   6  15  -3 543.260 59.5330   6
 -15  21   3 524.282 62.3295   8
   6  15  -3 559.720 58.4610   7
 -15  21   3 546.328 59.0574   4
   6  15  -6 221.819 36.2697   6
 -15  21   6 221.752 44.9247   8
   6  15  -6 197.831 38.7077   7
 -15  21   6 181.643 34.8098   5
  15 -21  -9 45.0026 41.2935   6
   6  15  -9-4.16040 34.2649   7
 -16  21  -7 178.115 49.7432   7
  21  -5  -7 178.548 46.4359   6
 -21   5   7 128.965 28.1600   5
  21  -5  -4 1407.28 128.274   6
   5  16   4 1120.39 128.653   8
 -16  21  -4 1184.21 131.294   7
 -21   5   4 1377.54 126.830   4
  21  -5  -1 1153.34 116.057   6
 -21   5   1 1297.83 116.281   4
 -16  21  -1 1302.39 117.584   4
 -16  21  -1 1364.06 127.928   1
   5  16   1 1340.11 116.975   8
 -16  21  -1 878.411 116.634   7
   5  16  -2 173.002 30.8924   6
 -16  21   2 98.4266 27.2430   4
 -16  21   2 146.818 30.9637   8
   5  16  -2 179.017 50.5604   1
 -16  21   5 33.1020 35.4995   8
   5  16  -5 9.98416 25.9305   6
   5  16  -5-8.05294 26.3326   7
   5  16  -8 201.150 37.4151   6
   5  16  -8 235.007 43.3202   7
 -16  21   8 163.573 36.9052   5
 -16  21   8 169.031 49.4222   8
  21  -4  -8 211.151 48.7703   6
 -21   4   8 221.152 32.0915   5
   4  17   5 258.344 44.5967   8
  21  -4  -5 287.218 42.0124   6
 -17  21  -5 306.508 50.1087   7
 -21   4   2 830.236 78.9444   4
  17 -21   2 542.976 86.2660   2
  21  -4  -2 901.477 79.4110   6
   4  17   2 835.763 81.6912   8
 -17  21  -2 631.855 82.1136   7
 -17  21  -2 844.326 96.2173   1
 -17  21   1 3233.30 304.202   4
 -17  21   1 2924.78 304.639   8
  17 -21  -1 3380.43 309.350   3
   4  17  -1 3672.72 315.572   1
   4  17  -4 1457.66 141.011   6
   4  17  -4 1358.03 139.843   7
 -17  21   4 1312.35 141.379   8
 -17  21   4 1555.24 140.613   4
   4  17  -7 1574.78 141.384   6
 -17  21   7 1337.90 141.390   5
 -17  21   7 1343.66 144.395   8
   4  17  -7 1337.25 142.634   7
  21  -3  -9 5.47079 34.9681   6
 -18  21  -9 52.1753 44.6421   7
   3  18   6 101.011 42.1693   8
 -21   3   6 127.068 25.2163   5
 -18  21  -6 88.6424 46.5973   7
  21  -3  -3 265.181 32.4899   6
   3  18   3 229.508 37.7598   8
  18 -21   3 223.573 47.4736   2
 -18  21  -3 208.657 41.9194   7
 -21   3   3 263.178 31.6577   4
   3  18   0 44.8803 46.1261   1
 -18  21   0 11.6028 23.2905   4
 -21   3   0 18.2420 18.3173   4
  21  -3   0 29.0541 15.0521   6
   3  18   0 23.5615 20.6784   8
 -18  21   0 11.9359 22.2724   8
  18 -21   0 17.5054 34.4094   3
 -18  21   3 1008.00 101.897   4
   3  18  -3 1126.94 103.865   6
   3  18  -3 941.822 101.458   7
 -18  21   3 1001.60 103.041   8
   3  18  -6 131.868 34.3789   6
 -18  21   6 141.206 39.1838   8
   3  18  -6 111.290 35.5298   7
 -18  21   9 11.5005 25.9684   5
  18 -21  -9 2.61495 40.1073   6
   3  18  -9-2.13762 34.7823   7
  21  -2  -7 218.588 48.6958   6
   2  19   7 308.597 53.2479   8
 -21   2   7 245.577 33.5279   5
 -19  21  -7 312.440 61.5115   7
  21  -2  -4 37.7559 23.7240   6
   2  19   4 28.5518 32.1011   8
 -19  21  -4 44.1203 39.0998   7
  21  -2  -1 220.460 27.5386   6
  19 -21   1 207.969 30.2752   3
 -19  21  -1 236.915 43.8752   1
 -21   2   1 176.864 25.2186   4
   2  19   1 256.766 29.8442   8
 -19  21  -1 189.730 32.7238   4
 -19  21   2 998.789 99.6201   4
 -19  21   2 986.979 99.8622   8
 -19  21   5 255.870 39.7351   4
   2  19  -5 197.227 39.0084   6
 -19  21   5 158.056 39.5464   8
   2  19  -5 192.788 34.9324   7
 -19  21   8 29.2806 30.8552   5
   2  19  -8 8.57643 36.9536   7
  21  -1  -8 74.4829 39.2395   6
 -20  21  -8 179.819 56.7962   7
  21  -1  -5 5.66164 26.5474   6
 -21   1   5-26.5439 19.1721   5
   1  20   5-0.82115 36.0699   8
 -20  21  -5 7.55910 43.8909   7
 -21   1   2 348.508 36.3543   4
  21  -1  -2 344.971 38.6161   6
   1  20   2 307.660 42.2902   8
  20 -21   2 317.624 50.1386   2
 -20  21  -2 284.952 41.2902   7
 -20  21  -2 355.306 57.8746   1
 -21   1  -1 160.262 47.7243   3
   1  20  -1 137.097 53.5709   1
 -20  21   1 98.5867 25.0538   8
 -20  21   1 162.343 28.4200   4
 -21   1  -1 118.395 25.3708   4
 -20  21   4 30.3683 32.4806   4
   1  20  -4 35.1807 25.0980   7
 -20  21   4 39.7423 29.7386   8
   1  20  -7 10.3412 34.0261   7
 -20  21   7-0.46314 39.5572   8
 -20  21   7 1.63626 33.9728   5
  21   0  -9 105.822 34.1372   6
 -21  21  -9 209.657 49.4263   7
   0  21   6 119.544 43.1398   8
 -21   0   6 133.328 23.0577   5
 -21  21  -6 170.968 54.7632   7
  21   0  -3 1424.60 134.651   6
 -21   0   3 1388.84 132.889   4
   0  21   3 1330.93 136.653   8
 -21  21  -3 1279.41 137.740   7
  21   0   0 1519.83 146.920   6
 -21   0   0 1374.91 146.093   4
 -21  21   0 1748.97 148.645   4
   0  21   0 1719.52 148.260   8
 -21  21   0 1451.73 147.696   8
 -21  21   3 267.251 39.8474   4
   0  21  -3 274.274 37.9272   7
 -21  21   3 235.084 38.2553   8
   0  21  -6 213.937 39.5935   7
 -21  21   6 277.009 45.3705   8
  21 -21  -9 23.6424 37.2694   6
   0  21  -9 50.3627 34.0646   7
  -1  22  -8 88.0531 37.1292   7
 -22  21   5 115.360 38.0704   4
 -22  21   5 87.9176 34.6460   8
  -1  22  -5 61.7270 29.6095   7
 -22  21   2 199.948 34.3672   8
 -22  21   2 246.861 36.3146   4
 -21  -1   1 1641.69 169.234   4
  21   1  -1 1879.28 170.816   6
  22 -21   1 1556.13 175.687   2
  -1  22   1 1873.78 171.374   8
 -22  21  -1 1966.99 172.113   4
  21   1  -4 513.475 58.0637   6
  -1  22   4 507.123 63.1027   8
 -22  21  -4 568.343 68.2304   7
  21   1  -7 46.9920 36.6989   6
  -1  22   7 52.6693 44.1949   8
 -22  21  -7 89.6142 59.5692   7
  22 -20  -9-24.1644 36.9907   6
  -2  22  -9 28.9543 33.4266   7
 -22  20   6 36.1422 37.4910   8
  -2  22  -6 12.6102 31.8148   7
 -22  20   3 231.449 38.0950   4
 -22  20   3 224.021 35.2140   8
  -2  22  -3 207.800 35.1296   7
 -22  20   0 48.8344 21.9234   8
  20   2   0 18.7217 17.0936   6
 -22  20   0 44.4260 25.3549   4
  -2  22   0 34.9802 23.6380   8
  20   2  -3 46.8316 21.6319   6
  -2  22   3 52.9196 33.6045   8
 -22  20  -3 54.0372 34.8413   7
  -2  22   6 86.0478 41.4201   8
 -22  20  -6 105.739 56.2192   7
  20   2  -9 23.2387 29.5418   6
 -22  20  -9 55.8124 48.9553   7
 -22  19   7 22.7447 40.4893   8
  -3  22  -7 19.1034 36.4050   7
  -3  22  -4 2.52718 25.7767   7
 -22  19   4-0.63459 29.1817   8
 -19  -3  -1-6.66857 17.0223   4
 -22  19   1-0.24413 26.6887   4
 -22  19   1 9.57311 20.7242   8
  19   3  -2 699.486 63.3381   6
 -22  19  -2 662.919 70.8158   1
  -3  22   2 612.035 67.5575   8
 -22  19  -2 494.508 63.7529   7
 -22  19  -5 138.054 53.4233   7
  -3  22   5 118.502 41.7923   8
  -3  22   5 132.672 24.9818   5
  19   3  -8 34.5500 33.6748   6
 -22  19  -8 28.3698 58.2089   7
 -22  18   8 53.6449 32.0314   5
  -4  22  -8 95.1929 39.2633   7
 -22  18   5 13.7487 31.1792   8
  -4  22  -5 52.4709 31.4689   7
 -22  18   2 2519.98 228.978   8
 -18  -4  -2 1901.53 236.836   3
  18   4  -1 100.006 20.2495   6
  -4  22   1 63.7263 26.3416   8
  22 -18   1 54.7561 21.8484   2
 -22  18  -1 80.5859 26.1686   4
 -22  18  -4 209.798 48.5843   7
  18   4  -4 165.560 28.4446   6
  -4  22   4 115.600 38.9672   8
  -4  22   4 131.448 23.7074   5
  18   4  -7 277.963 50.5980   6
  -4  22   7 342.295 59.3143   8
  -5  22  -9-22.4801 35.1208   7
  22 -17  -9 34.8653 37.1347   6
 -22  17   9-3.28252 26.3461   5
 -22  17   6 1481.81 140.447   8
  -5  22  -6 1286.01 140.239   7
 -22  17   3 571.146 60.1021   8
 -17  -5  -3 476.368 77.6689   3
  17   5   0 500.597 48.5359   6
  -5  22   0 511.654 51.2556   8
 -22  17   0 569.036 48.7596   8
  17   5  -3 1238.69 101.484   6
  -5  22   3 835.756 99.2066   5
  -5  22   3 1134.00 105.411   8
 -22  17  -3 1052.86 104.884   7
 -22  17  -6 224.070 65.9164   7
  -5  22   6 137.939 42.9975   8
  17   5  -6 133.336 32.4778   6
  -5  22   6 108.026 27.6045   5
  17   5  -9 6.52256 28.0976   6
 -22  17  -9 15.3223 50.9696   7
 -22  16   7 23.8733 32.7223   5
  -6  22  -7 1.07949 38.9812   7
 -22  16   4 802.681 80.6404   8
 -22  16   4 729.904 82.2778   4
  -6  22  -1 490.893 73.9373   1
 -22  16   1 413.156 46.6552   8
   6 -22  -2 62.4090 71.8408   3
  16   6  -2 18.0697 19.5068   6
  -6  22   2 4.64557 29.3349   8
 -22  16  -2 18.7991 26.3015   1
 -22  16  -2-9.02740 21.2296   7
 -16  -6   2 48.7525 29.7414   2
  16   6  -2 18.7533 41.2806   1
  -6  22   5 45.7218 40.0334   8
  16   6  -5 21.2664 25.3462   6
  -6  22   5 34.8489 22.9152   5
  16   6  -8 113.935 37.5854   6
  -6  22   8 176.787 53.3551   8
  22 -15  -8 223.509 54.9252   6
 -22  15   8 217.292 39.4878   5
  -7  22  -8 213.436 49.9744   7
 -22  15   5 815.439 89.7796   8
 -22  15   5 880.174 89.8925   4
  -7  22  -2 134.793 31.4447   7
 -22  15   2 198.806 26.7331   8
 -22  15   2 165.231 29.8035   4
  22 -15  -2 91.9177 24.2378   2
  15   7  -1 1378.34 130.997   6
 -15  -7   1 1328.53 133.633   2
  -7  22   1 1230.94 132.404   8
  -7  22   1 1296.22 129.307   4
  -7  22   4 24.7696 35.9003   8
  -7  22   4 8.98207 19.8064   5
  15   7  -7 137.185 38.7956   6
  -7  22   7 190.251 33.3513   5
  22 -14  -9 268.894 46.3542   6
 -22  14   9 227.020 35.4929   5
  -8  22  -9 247.983 47.8663   7
 -22  14   6-2.62992 38.9900   8
  22 -14  -6-17.7052 45.2171   6
 -22  14   3 502.382 54.4854   4
 -22  14   3 495.138 52.5034   8
  -8  22  -3 389.045 54.9847   7
 -14  -8  -3 502.517 75.2958   3
  -8  22   0 27.2096 49.9564   1
 -22  14   0 29.0211 23.6033   4
  -8  22   0 27.3862 13.9437   4
 -22  14   0 31.5274 16.8595   8
 -14  -8   3 3073.64 276.697   2
  -8  22   3 2661.31 271.978   8
  14   8  -6 268.885 40.0290   6
  -8  22   6 302.002 50.8254   8
  -8  22   6 201.983 36.9897   5
  14   8  -6 334.088 41.8611   7
  14   8  -9 203.225 36.4483   6
 -22  14  -9 314.624 60.7262   7
 -22  13   7-20.0092 30.5408   5
  -9  22  -4 72.0417 32.0810   7
 -22  13   4 89.6433 29.4023   8
 -22  13   4 123.007 30.9391   4
  -9  22  -1 56.9147 16.2412   4
  -9  22  -1 73.4811 51.1408   1
  22 -13  -1 39.2290 17.8906   6
 -22  13   1 61.4135 21.5989   8
 -22  13   1 62.1380 24.6271   4
   9 -22  -2 294.441 72.3122   3
  13   9  -2 258.823 32.7219   6
  13   9  -2 276.376 49.7612   1
  -9  22   2 197.650 37.8754   8
 -13  -9   2 353.762 43.7496   2
  -9  22   2 219.743 30.9198   4
  13   9  -5 70.5164 25.9382   6
  -9  22   5 66.2119 42.1448   8
  13   9  -5 141.245 29.4330   7
  -9  22   5 52.6398 24.6490   5
 -22  13  -8 104.178 70.3334   7
  13   9  -8 60.8214 31.4515   6
  -9  22   8 103.114 52.5652   8
  22 -12  -8 161.400 48.9304   6
 -22  12   8 99.5727 30.9633   5
 -22  12   5 190.289 35.9608   4
 -10  22  -5 117.638 38.5109   7
  22 -12  -5 175.112 43.4989   6
 -22  12   5 191.462 38.8653   8
 -22  12   2 19.8572 23.8064   4
  22 -12  -2 24.6840 19.3313   6
 -22  12   2 4.52632 19.5602   8
 -10  22  -2-2.66261 55.3400   1
 -10  22  -2 36.6010 25.3943   7
  12  10  -1 158.742 41.9192   1
  12  10  -1 109.269 23.3431   6
 -10  22   1 102.800 20.6422   4
  12  10  -4 32.6359 23.4413   6
  12  10  -4 15.5574 24.4389   7
  12  10  -7 112.572 34.5542   6
 -10  22   7 138.663 31.4130   5
  12  10  -7 134.213 37.5652   7
  22 -11  -9 54.3096 37.3829   6
 -11  22  -6 18.6439 38.5281   7
  22 -11  -6 43.8739 43.5393   6
  22 -11  -3 312.788 43.8526   6
 -22  11   3 366.538 43.3577   8
 -22  11   3 377.144 43.9953   4
  11  11   3 453.926 45.1386   8
 -11  22  -3 349.681 49.7254   7
 -11  22   0 202.455 50.8313   1
 -22  11   0 183.551 26.7157   4
  22 -11   0 116.922 19.3572   6
 -11  22   0 175.138 22.2664   4
 -11  22   3 52.9347 22.4867   4
 -11 -11   3 80.5147 38.1817   2
  11  11  -6 108.486 31.2580   7
  11  11  -6 47.8630 27.9519   6
 -11  22   6 64.0168 27.6992   5
 -22  11  -9 64.6633 58.1042   7
  11  11  -9-9.29913 24.8643   6
 -22  10   7 201.699 36.8396   5
 -12  22  -7 309.395 53.1424   7
  22 -10  -4 5044.74 463.787   6
  10  12   4 4690.29 463.162   8
 -22  10   4 5018.82 462.829   8
 -12  22  -4 4455.60 464.036   7
 -22  10   4 4882.64 462.444   4
 -12  22  -1 3143.01 252.542   1
  22 -10  -1 2168.56 238.280   6
 -22  10   1 2766.82 239.197   4
 -12  22  -1 2548.52 238.451   4
 -12  22   2 6769.47 656.861   4
  10  12  -2 7659.62 665.214   1
  12 -22  -2 6825.27 664.348   3
  10  12  -5 877.865 91.4007   6
  10  12  -5 906.089 91.6542   7
  10  12  -8 11.3089 28.8779   6
 -12  22   8 34.0559 27.6561   5
  10  12  -8 73.0302 36.9285   7
  22  -9  -8 79.4159 44.2274   6
 -22   9   8 50.3881 26.1709   5
 -13  22  -8 55.0197 45.5293   7
 -22   9   5 141.643 32.2168   4
 -13  22  -5 171.787 41.9437   7
   9  13   5 203.881 39.9985   8
  22  -9  -5 140.241 38.2423   6
 -13  22  -2 4301.38 393.739   1
 -22   9   2 3968.78 380.096   4
  22  -9  -2 3753.33 380.162   6
 -22   9   2 5124.19 385.879   3
 -13  22  -2 3370.24 380.898   7
   9  13   2 4293.17 380.312   8
  13 -22  -1 361.532 72.4492   3
   9  13  -1 488.647 53.0119   6
   9  13  -1 493.097 66.6409   1
 -13  22   1 442.600 49.3702   4
 -13  22   1 527.674 54.7015   8
 -13  22   4 9.17929 25.2075   4
   9  13  -4-2.72351 23.9924   7
   9  13  -4 0.31266 23.5874   6
 -13  22   4 9.09939 35.6172   8
   9  13  -7 92.5482 32.9146   6
 -13  22   7 170.469 50.0885   8
 -13  22   7 139.637 31.8926   5
   9  13  -7 134.815 37.2909   7
  22  -8  -9 182.054 42.0073   6
 -14  22  -9 151.098 45.3043   7
  22  -8  -6 42.9690 41.9448   6
 -22   8   6 29.0323 23.5507   5
 -14  22  -6-24.5032 40.8501   7
   8  14   6 6.55783 41.8895   8
 -22   8   3 1567.62 145.646   4
  22  -8  -3 1475.52 146.015   6
   8  14   3 1425.73 146.619   8
 -14  22  -3 1340.96 148.646   7
 -14  22   0 2046.87 177.129   4
 -22   8   0 2025.71 177.594   4
   8  14   0 2163.56 176.780   8
   8  14  -3 228.240 32.1823   6
 -14  22   3 197.101 31.0992   4
 -14  22   3 142.822 39.6147   8
   8  14  -6-1.11708 26.7278   6
 -14  22   6 5.79743 40.4341   8
   8  14  -6 34.1851 29.8548   7
 -14  22   6 3.14525 27.1314   5
  14 -22  -9 43.9626 40.1201   6
 -22   7   7 196.623 32.7864   5
 -15  22  -7 195.541 53.3395   7
 -22   7   4 23.1362 23.6012   4
   7  15   4 48.1253 29.3525   8
  22  -7  -4 23.3066 25.9260   6
 -15  22  -4 32.1124 37.5342   7
  22  -7  -1 604.152 73.0911   6
 -22   7   1 679.251 74.0859   4
 -15  22  -1 815.391 89.5897   1
 -15  22  -1 746.142 75.2899   4
 -22   7   1 923.007 81.1136   3
   7  15   1 904.740 74.6476   8
   7  15  -2 616.513 82.6166   1
 -15  22   2 639.449 66.0187   4
   7  15  -2 657.997 68.2063   6
 -15  22   2 617.552 68.9092   8
  15 -22  -2 654.677 85.8072   3
   7  15  -5 1295.69 127.016   6
 -15  22   5 1295.25 130.275   8
   7  15  -5 1233.03 126.655   7
   7  15  -8 227.795 39.4627   6
 -15  22   8 316.179 54.3184   8
 -15  22   8 230.762 40.1132   5
   7  15  -8 282.131 46.5402   7
  22  -6  -8 104.616 43.4767   6
 -22   6   8 106.810 25.2978   5
 -16  22  -8 95.0240 50.1576   7
   6  16   5 13.4293 34.5059   8
  22  -6  -5 25.1162 31.1969   6
 -16  22  -5-5.24216 39.5709   7
   6  16   2 67.9551 25.7317   8
 -22   6   2 77.7113 21.4512   4
  22  -6  -2 78.2232 20.0747   6
 -16  22  -2 76.9342 27.2136   7
 -16  22  -2 80.8689 50.5258   1
   6  16  -1 76.0406 47.0488   1
 -16  22   1 72.2728 25.5346   8
 -16  22   1 59.2941 21.5707   4
  16 -22  -1 62.0967 47.1605   3
   6  16  -4 446.359 50.4383   6
 -16  22   4 413.400 54.3277   8
   6  16  -4 416.727 49.7310   7
 -16  22   4 424.597 50.7300   4
   6  16  -7 254.752 41.2755   6
 -16  22   7 300.066 53.8046   8
   6  16  -7 286.967 44.9125   7
 -16  22   7 249.344 41.9056   5
  22  -5  -9 140.277 38.5615   6
 -17  22  -9 149.568 45.6687   7
   5  17   6 156.029 45.0995   8
 -22   5   6 177.564 30.3367   5
 -17  22  -6 197.977 48.9433   7
 -22   5   3 32.3343 21.1088   4
  22  -5  -3 21.8780 20.8319   6
 -17  22  -3 37.9320 31.8559   7
   5  17   3 4.42100 27.0088   8
 -17  22   0 176.291 26.7552   4
 -22   5   0 153.354 24.0556   4
  22  -5   0 122.259 20.1003   6
   5  17   0 169.125 25.5472   8
 -17  22   0 124.581 28.6170   8
  17 -22   0 128.742 42.9157   3
   5  17  -3 530.625 56.4472   6
 -17  22   3 495.002 58.8771   8
 -17  22   3 461.409 55.4051   4
   5  17  -6 49.1387 30.2224   6
 -17  22   6 17.0056 37.8723   8
   5  17  -6 14.1509 29.8000   7
  17 -22  -9 104.699 41.1584   6
 -22   4   7 806.592 85.5363   5
 -18  22  -7 980.302 100.460   7
 -22   4   4 78.3600 23.7035   4
   4  18   4 42.4058 32.2341   8
  22  -4  -4 99.5603 26.0760   6
 -18  22  -4 46.8727 39.4865   7
 -22   4   1 993.800 99.7893   4
  22  -4  -1 1085.58 100.317   6
 -18  22  -1 989.725 110.211   1
 -18  22  -1 1091.79 102.297   4
   4  18   1 945.399 101.086   8
 -18  22   2 56.3347 25.2838   4
 -18  22   2 59.2068 27.7719   8
   4  18  -5 14.5937 28.1300   6
   4  18  -5 2.12647 26.4988   7
 -18  22   5 28.1401 34.9246   8
 -18  22   8 273.006 43.8642   5
   4  18  -8 301.631 48.8124   7
  22  -3  -8 94.3109 41.6474   6
 -19  22  -8 105.723 54.8256   7
  22  -3  -5 1229.09 114.007   6
   3  19   5 986.919 114.652   8
 -19  22  -5 1142.52 119.632   7
 -22   3   2 2725.12 257.700   4
  22  -3  -2 2917.11 258.611   6
  19 -22   2 2523.45 266.600   2
   3  19   2 3014.47 259.730   8
 -19  22  -2 3229.87 270.589   1
 -19  22  -2 2077.90 258.860   7
 -19  22   1 3329.90 308.175   4
 -22   3  -1 3274.43 307.924   4
   3  19  -1 3589.07 320.172   1
 -19  22   1 2974.62 307.978   8
   3  19  -4 1070.61 101.059   6
 -19  22   4 905.506 99.9160   8
   3  19  -4 912.266 98.1121   7
 -19  22   4 991.993 98.8839   4
 -19  22   7 379.466 57.7261   8
 -19  22   7 373.549 51.2894   5
   3  19  -7 389.544 52.9023   7
  22  -2  -9 163.525 38.4250   6
 -20  22  -9 215.129 49.1682   7
   2  20   6 802.487 86.0324   8
 -22   2   6 729.518 75.7566   5
 -20  22  -6 741.945 91.5822   7
 -22   2   3 67.8592 20.2536   4
  22  -2  -3 66.8338 21.9265   6
   2  20   3 61.5269 30.2485   8
 -20  22  -3 91.1160 34.1685   7
  22  -2   0 677.722 78.0136   6
 -22   2   0 754.125 78.3681   4
 -20  22   0 933.654 80.9574   4
 -20  22   0 748.264 79.9987   8
   2  20   0 949.217 80.0683   8
 -20  22   3 27.2929 28.0605   4
 -20  22   3 13.2384 29.4679   8
 -20  22   6 342.267 51.7105   8
   2  20  -6 360.484 48.8329   7
  20 -22  -9 120.780 39.0944   6
 -20  22   9 94.9438 27.4324   5
  22  -1  -7 29.3100 38.7484   6
 -22   1   7 49.3933 18.5132   5
   1  21   7 11.0738 44.7885   8
 -21  22  -7 133.189 57.3456   7
  22  -1  -4 590.347 61.3304   6
   1  21   4 463.163 65.3204   8
 -21  22  -4 650.036 71.9148   7
 -22   1   1 177.912 23.5432   4
  22  -1  -1 158.056 25.6390   6
 -21  22  -1 189.295 32.5582   4
   1  21   1 204.763 28.8042   8
 -21  22   2 211.779 33.3264   8
 -21  22   2 191.086 34.1865   4
 -21  22   5 8.02614 35.1368   4
   1  21  -5 11.1123 27.2181   7
 -21  22   5 37.3446 34.4225   8
 -21  22   8 197.258 38.7845   5
   1  21  -8 216.001 42.6789   7
  22   0  -8 126.592 38.4159   6
 -22   0   5 26.9039 16.9716   5
  22   0  -5 0.39581 28.0927   6
   0  22   5 38.7617 38.7941   8
 -22  22  -5 0.64353 50.2829   7
  22   0  -2 696.629 61.6300   6
   0  22   2 541.702 64.6131   8
 -22   0   2 633.869 59.2627   4
 -22   0  -1 186.581 28.1039   4
 -22  22   1 156.473 28.8218   8
 -22  22   1 206.024 32.5463   4
 -22  22   4 547.927 66.8760   8
   0  22  -4 550.654 64.9815   7
 -22  22   4 697.720 68.9912   4
 -22  22   7 123.521 42.7014   8
 -22  22   7 150.422 37.4290   5
   0  22  -7 96.0419 38.4904   7
  23 -22  -9 75.9130 36.2654   6
 -23  22   6 19.2372 37.8429   8
  -1  23  -6 14.5556 32.4519   7
 -23  22   3 485.876 55.9028   4
 -23  22   3 433.831 53.9793   8
 -23  22   0 32.8639 26.6665   4
  22   1   0-0.21544 17.8527   6
 -23  22   0 13.3729 22.8973   8
  -1  23   0-3.05971 24.7992   8
 -22  -1   0 8.73783 14.7036   4
  22   1  -3 19.7360 21.6283   6
  -1  23   3 1.08075 33.2156   8
 -23  22  -3 0.79473 33.3748   7
  -1  23   6 19.7289 41.1558   8
 -23  22  -6 29.6734 56.2930   7
  22   1  -9 37.7435 29.0022   6
 -23  22  -9 56.2656 45.5237   7
  -2  23  -7 120.909 37.5352   7
 -23  21   7 138.316 43.4158   8
 -23  21   4 177.163 38.7126   4
 -23  21   4 118.906 35.3031   8
  -2  23  -4 140.274 32.1345   7
 -23  21   1 571.782 50.4754   4
 -23  21   1 497.256 47.8676   8
  21   2  -2 8.34681 19.8400   6
  -2  23   2 29.2190 29.5893   8
 -23  21  -2 3.28701 21.3325   7
  21   2  -5 57.6793 28.1991   6
  -2  23   5 33.1143 40.4124   8
 -23  21  -5 63.2463 53.4296   7
  21   2  -8 11.6696 34.4914   6
 -23  21  -8 2.31235 61.0683   7
  -3  23  -8 77.5167 37.2924   7
 -23  20   5 595.928 60.4589   8
  -3  23  -5 421.115 57.8686   7
 -23  20   2 1842.69 187.908   4
 -23  20   2 2021.20 188.042   8
  20   3  -1 339.188 37.8307   6
  -3  23   1 312.814 41.0913   8
 -23  20  -1 321.733 42.1399   4
  20   3  -4 899.788 76.4368   6
  -3  23   4 731.799 81.8924   8
  -3  23   4 594.007 72.8906   5
 -23  20  -4 1004.85 86.5110   7
  20   3  -7 483.180 68.8119   6
  -3  23   7 597.431 75.3366   8
  23 -19  -9 34.2750 35.0494   6
 -23  19   9 13.8282 25.3155   5
  -4  23  -9 7.18070 33.3608   7
  -4  23  -6 664.384 80.9750   7
 -23  19   6 822.788 83.4735   8
 -23  19   3 61.9932 28.6144   8
  19   4   0 29.1487 20.0643   6
 -23  19   0 22.2739 21.1732   8
  -4  23   0 30.1581 25.1595   8
  19   4  -3 15.4851 22.3509   6
  -4  23   3-29.5503 35.6977   8
 -23  19  -3-7.56952 32.0339   7
  19   4  -6 33.0022 31.5294   6
  -4  23   6 58.5139 42.2993   8
 -23  19  -6 90.1454 62.7077   7
  19   4  -9 30.2357 28.3198   6
 -23  19  -9-6.94145 51.0663   7
  23 -18  -7 13.7654 51.1096   6
 -23  18   7 52.2523 33.9662   5
  -5  23  -7 6.52637 36.0752   7
 -23  18   4 585.427 65.6433   8
 -23  18   1 231.734 33.1523   8
  18   5  -2 235.807 30.5886   6
  -5  23   2 209.333 39.1391   8
 -23  18  -5 83.9481 58.3996   7
  -5  23   5 73.7350 23.0684   5
  -5  23   5 103.713 41.2169   8
  18   5  -8 43.4046 33.4174   6
  -5  23   8 66.2095 49.6672   8
 -23  18  -8-16.0154 61.3545   7
 -23  17   8 53.4102 30.6470   5
  -6  23  -8 48.1158 39.0930   7
 -23  17   5 519.028 62.8441   8
 -23  17   5 537.288 63.8558   4
 -17  -6  -2 228.142 62.9260   3
 -23  17   2 169.535 30.3158   8
  -6  23   1 670.848 70.6102   8
  17   6  -1 632.462 67.9129   6
 -17  -6   1 714.912 72.6954   2
  -6  23   4 823.857 88.4496   8
  -6  23   4 726.043 80.9333   5
 -23  17  -7 264.174 75.4967   7
  17   6  -7 120.073 37.8557   6
  -6  23   7 168.233 51.8263   8
  23 -16  -9 0.47061 35.7690   6
 -23  16   9 30.3883 24.2715   5
  -7  23  -9-8.84446 34.6725   7
 -23  16   6 36.5410 41.4837   8
  23 -16  -6 49.7094 48.6775   6
 -23  16   3 116.877 29.4471   8
 -23  16   3 115.620 30.8457   4
  -7  23  -3 123.200 30.4799   7
  -7  23   0 65.8348 52.5604   1
 -23  16   0 113.561 26.3014   4
 -23  16   0 96.7474 21.5433   8
  -7  23   0 134.459 28.5879   8
 -23  16  -3-3.62556 34.7209   7
  16   7  -3 22.1393 22.1324   6
  -7  23   3 5.54061 35.6277   8
 -23  16  -6 272.372 74.9833   7
  16   7  -6 139.414 34.3137   6
  -7  23   6 154.625 30.2061   5
  -7  23   6 184.507 47.7569   8
  16   7  -9 66.4378 28.1998   6
 -23  16  -9 108.005 52.4128   7
 -23  15   7 67.6702 33.2862   5
 -23  15   4 472.871 52.9871   8
  -8  23  -4 405.991 55.0287   7
 -23  15   4 439.682 54.8293   4
  -8  23  -1 35.2074 53.4489   1
 -23  15   1 14.9748 21.9513   8
 -23  15   1 14.4319 25.0110   4
  -8  23   2 0.29502 17.7827   4
  15   8  -2-13.9244 19.8113   6
  -8  23   2 29.9520 31.3312   8
 -15  -8   2 48.8967 31.0088   2
  15   8  -2 33.4828 43.0312   1
  -8  23   5 4.41144 41.0941   8
  -8  23   5 11.2650 21.6744   5
  15   8  -5 1.38266 24.6579   6
 -23  15  -8 200.985 70.9105   7
  15   8  -8 115.763 33.4708   6
  -8  23   8 113.395 52.1366   8
 -23  14   8 21.5370 28.6305   5
 -23  14   5 14.3116 32.6113   4
 -23  14   5-3.50510 35.0150   8
  23 -14  -5-10.0578 39.8293   6
  -9  23  -5 6.86831 33.0501   7
  -9  23  -2-5.18857 17.6784   4
 -23  14   2 7.45716 25.0556   4
  -9  23  -2 20.3956 26.2499   7
 -23  14   2-9.89344 22.3093   8
  -9  23   1 30.4344 16.5126   4
  14   9  -1 31.5608 20.4485   6
  14   9  -1 17.8087 40.4206   1
  -9  23   1-2.64038 28.7045   8
 -23  14  -1 13.8240 18.5596   8
  -9  23   4-18.4856 37.8385   8
  14   9  -7 364.178 50.3748   6
  -9  23   7 491.043 65.1848   8
  -9  23   7 336.424 46.1012   5
  23 -13  -9-19.4634 36.2044   6
 -23  13   9 7.42723 22.7565   5
  23 -13  -6 613.446 74.4497   6
 -10  23  -6 484.311 66.3110   7
 -23  13   3 3097.71 300.481   4
 -23  13   3 3494.85 300.413   8
 -10  23  -3 2651.69 301.509   7
 -10  23   0 1746.64 174.531   4
 -10  23   0 2069.59 190.615   1
 -23  13   0 1937.62 176.300   4
 -10  23   3 3975.61 407.857   8
 -10  23   3 4127.40 405.224   4
 -10  23   6 195.795 50.7307   8
  13  10  -6 203.690 35.5837   6
 -10  23   6 198.655 32.7590   5
  13  10  -9 38.2461 25.5459   6
 -23  13  -9-47.6248 53.5475   7
 -23  12   7 210.205 37.7332   5
 -11  23  -7 247.816 47.1381   7
 -23  12   4 84.2666 30.9163   4
  12  11   4 98.1832 34.9185   8
 -23  12   4 114.242 33.5464   8
  23 -12  -4 82.8484 33.4770   6
 -11  23  -4 94.2012 36.0463   7
 -23  12   1 388.235 39.9422   4
  23 -12  -1 272.513 36.0740   6
 -11  23  -1 345.404 64.5489   1
 -11  23  -1 332.492 36.0533   4
  12  11  -2 1.69872 21.4574   6
 -11  23   2 21.3492 19.9358   4
 -12 -11   2-8.53384 31.7733   2
  12  11  -2 48.4956 42.0340   1
  11 -23  -2-5.98699 61.5567   3
  12  11  -5 335.311 44.1959   6
 -11  23   5 323.300 43.3183   5
  12  11  -5 433.838 46.0378   7
  12  11  -8 229.815 40.0357   6
 -23  11   8 432.923 52.8731   5
  23 -11  -8 500.177 65.6373   6
 -12  23  -8 443.513 63.6732   7
 -23  11   5 263.741 38.5120   4
  11  12   5 178.563 46.3163   8
  23 -11  -5 265.410 45.3182   6
 -12  23  -5 216.699 43.1651   7
  23 -11  -2 168.718 26.5681   6
 -23  11   2 208.675 29.6088   4
 -12  23  -2 139.105 33.0572   7
  11  12  -1 2396.13 212.728   6
 -12  23   1 2031.53 210.558   4
  11  12  -1 2623.77 221.098   1
  11  12  -4 21.9291 23.3408   6
  11  12  -7 138.444 33.5043   6
 -12  23   7 86.7003 30.4643   5
  11  12  -7 185.672 37.8408   7
  23 -10  -9 243.026 44.0195   6
 -13  23  -9 184.015 47.1512   7
  23 -10  -6 30.9692 44.0837   6
 -13  23  -6 20.5784 41.6350   7
 -23  10   3 181.019 30.6317   4
  23 -10  -3 189.064 30.2269   6
  10  13   3 203.369 32.3439   8
 -13  23  -3 166.297 39.0449   7
 -13  23   0 232.664 26.0609   4
 -23  10   0 242.255 28.8209   4
  10  13  -3 1812.90 165.827   6
 -13  23   3 1591.50 167.867   8
 -13  23   3 1661.21 164.382   4
  10  13  -6 826.956 92.4968   6
 -13  23   6 795.901 92.6157   5
 -23  10  -9 96.0294 57.8584   7
  10  13  -9 49.5220 27.2538   6
 -23   9   7 36.6273 26.0512   5
 -14  23  -7 63.3440 46.1715   7
  23  -9  -4 201.978 35.7205   6
 -23   9   4 195.256 33.2571   4
   9  14   4 279.183 38.6799   8
 -14  23  -4 150.270 41.2418   7
 -14  23  -1 365.100 60.3110   1
  23  -9  -1 230.636 34.6913   6
 -23   9   1 306.121 37.7072   4
 -14  23  -1 317.156 37.3673   4
   9  14  -2 6.34433 44.5623   1
 -14  23   2 17.9319 20.3672   4
  14 -23  -2 33.0698 54.6844   3
 -14  23   2 7.86494 28.7585   8
   9  14  -5 369.585 47.6031   6
 -14  23   5 384.698 58.3494   8
   9  14  -5 422.570 48.7780   7
   9  14  -8 19.3698 27.6693   6
 -14  23   8 12.5615 48.0784   8
 -14  23   8-23.8171 27.0039   5
   9  14  -8 32.4039 35.7434   7
 -23   8   8 57.9242 23.7696   5
  23  -8  -8 60.5378 42.8457   6
 -15  23  -8 15.0851 45.8965   7
  23  -8  -5 465.987 57.3115   6
   8  15   5 399.426 56.8499   8
 -15  23  -5 433.471 59.4296   7
  23  -8  -2 229.653 31.9182   6
 -15  23  -2 284.688 63.6930   1
   8  15   2 277.973 34.5306   8
 -23   8   2 249.249 32.5055   4
 -23   8   2 346.548 59.2294   3
 -15  23  -2 212.223 36.4775   7
 -15  23   1 27.1975 27.3068   8
 -15  23   1 27.9968 20.0899   4
   8  15  -1 2.88704 43.1774   1
  15 -23  -1-13.9427 49.4522   3
 -15  23   4 194.236 33.3417   4
   8  15  -4 195.404 33.2752   6
 -15  23   4 219.331 41.7420   8
   8  15  -4 173.576 32.4075   7
   8  15  -7 131.272 34.1831   6
 -15  23   7 180.022 50.7704   8
 -15  23   7 183.265 34.7244   5
   8  15  -7 184.509 39.4764   7
  23  -7  -9-0.92757 35.7007   6
 -16  23  -9 32.6171 42.9275   7
  23  -7  -6 89.3301 39.3068   6
   7  16   6 89.7907 43.7897   8
 -23   7   6 88.7918 24.9166   5
 -16  23  -6 92.1662 45.4329   7
   7  16   3 9.50537 27.0262   8
  23  -7  -3 2.81300 20.8916   6
 -16  23  -3 17.2279 33.0770   7
  23  -7   0 233.981 28.0560   6
 -16  23   0 264.365 32.1305   4
 -23   7   0 278.477 32.6383   4
   7  16   0 214.264 30.3596   8
 -16  23   0 261.181 35.5846   8
   7  16  -3 71.6562 26.5316   6
 -16  23   3 63.6101 26.3933   4
 -16  23   3 44.8167 33.7120   8
   7  16  -6 18.8576 30.5904   7
   7  16  -6 42.4151 28.6824   6
 -16  23   6 47.5947 41.9891   8
 -16  23   6 52.0351 27.6086   5
  16 -23  -9 5.63889 38.2236   6
 -23   6   7 100.760 25.5326   5
 -17  23  -7 111.775 51.6795   7
  23  -6  -4 2298.44 208.385   6
   6  17   4 2077.96 208.871   8
 -17  23  -4 1920.90 210.781   7
 -23   6   4 2177.00 206.870   4
  23  -6  -1 5936.29 585.307   6
 -23   6   1 6022.09 585.058   4
 -17  23  -1 6072.14 592.477   1
   6  17   1 6696.55 585.683   8
 -17  23  -1 5993.08 585.601   4
 -17  23   2 3131.21 304.011   4
 -17  23   2 3221.19 305.260   8
   6  17  -5 1450.41 146.628   6
 -17  23   5 1370.92 149.123   8
   6  17  -5 1591.48 146.996   7
 -17  23   8 33.4559 45.7280   8
 -17  23   8 32.5854 29.4264   5
   6  17  -8 46.8022 36.6591   7
  23  -5  -8 329.625 53.4368   6
 -23   5   8 255.686 34.7281   5
 -18  23  -8 333.820 57.5127   7
  23  -5  -5 982.730 99.1853   6
   5  18   5 937.265 100.124   8
 -18  23  -5 916.164 104.374   7
 -18  23  -2 154.543 53.7565   1
 -23   5   2 86.3275 21.8895   4
  18 -23   2 112.493 36.7123   2
  23  -5  -2 86.9890 20.8877   6
 -18  23  -2 83.1779 27.1775   7
   5  18   2 131.640 29.0091   8
 -23   5  -1 111.004 26.3300   4
 -18  23   1 81.3122 26.6041   8
  18 -23  -1 124.905 46.8748   3
 -18  23   1 80.8497 24.0721   4
   5  18  -1 120.319 49.2149   1
   5  18  -4 34.4650 27.3576   6
 -18  23   4 17.3016 28.1295   4
   5  18  -4 25.6612 25.6304   7
 -18  23   4 35.5159 33.9037   8
   5  18  -7 223.256 40.8394   6
 -18  23   7 191.087 49.1997   8
 -18  23   7 213.410 38.7782   5
   5  18  -7 227.212 42.4564   7
  23  -4  -9 318.249 48.5225   6
 -19  23  -9 379.559 56.7859   7
  23  -4  -6 404.323 54.8750   6
 -23   4   6 383.801 44.3315   5
   4  19   6 370.397 56.7186   8
 -19  23  -6 364.252 63.8642   7
  23  -4  -3 1291.03 130.182   6
   4  19   3 1371.00 132.192   8
 -19  23  -3 1251.52 133.906   7
 -23   4   3 1364.90 129.402   4
  23  -4   0 611.696 71.3737   6
 -19  23   0 828.803 74.8742   4
 -23   4   0 784.226 72.6796   4
   4  19   0 847.398 73.8092   8
  19 -23   0 743.131 80.3133   3
 -19  23   0 610.220 74.2217   8
 -19  23   3 399.939 47.7476   4
 -19  23   3 357.979 50.5599   8
   4  19  -6 4.91429 33.4564   6
 -19  23   6 37.7045 37.8204   8
   4  19  -6 32.3781 32.8515   7
  19 -23  -9 234.475 45.5255   6
   3  20   7 166.401 47.9010   8
 -23   3   7 154.213 26.0265   5
 -20  23  -7 183.215 58.0374   7
  23  -3  -4 63.3137 25.6663   6
   3  20   4 90.1768 33.8639   8
 -20  23  -4 71.2982 42.7403   7
 -23   3   1 243.888 29.9324   4
  23  -3  -1 267.790 31.2044   6
 -20  23  -1 293.363 48.2155   1
 -20  23  -1 240.487 36.0470   4
   3  20   1 241.315 34.3035   8
 -20  23   2 4280.95 391.584   4
 -20  23   2 3883.41 391.698   8
 -20  23   5 196.315 39.1936   4
   3  20  -5 163.530 40.3036   6
 -20  23   5 124.511 40.3806   8
   3  20  -5 202.777 35.6783   7
 -20  23   8 258.637 43.4189   5
   3  20  -8 350.523 48.2863   7
  23  -2  -8 0.51413 37.2912   6
 -21  23  -8 53.8392 53.1489   7
  23  -2  -5 30.8411 28.4095   6
   2  21   5 20.6866 35.5920   8
 -23   2   5 12.2113 18.6556   5
 -21  23  -5 31.0693 47.8210   7
 -23   2   2 809.168 76.9544   4
   2  21   2 828.262 81.4129   8
  23  -2  -2 835.710 78.5560   6
  21 -23   2 715.045 89.5075   2
 -21  23  -2 821.016 92.1514   1
 -21  23  -2 624.380 79.1732   7
 -21  23   1 715.209 70.8481   4
 -21  23   1 641.525 69.9146   8
   2  21  -4 316.257 45.4007   7
 -21  23   4 352.913 48.6350   8
 -21  23   4 392.948 48.9067   4
 -21  23   7 37.0445 41.3215   8
   2  21  -7 74.2066 35.0765   7
 -21  23   7 48.0376 32.9737   5
  23  -1  -9 43.5639 29.8649   6
 -22  23  -9 47.3422 45.6121   7
 -23   1   6 58.3586 18.7195   5
   1  22   6 70.6795 42.8898   8
 -22  23  -6 109.265 56.7113   7
 -23   1   3 13.8085 17.9854   4
  23  -1  -3 12.4056 22.3376   6
   1  22   3 7.63571 30.8883   8
 -22  23  -3 2.93974 35.2132   7
  23  -1   0 850.867 89.5570   6
 -23   1   0 838.203 89.0230   4
 -22  23   0 1038.17 92.3714   4
   1  22   0 1053.88 91.6965   8
 -22  23   0 878.080 91.4252   8
 -22  23   3 21.7902 30.7904   4
 -22  23   3-11.5042 29.5023   8
 -22  23   6 300.734 46.4743   8
   1  22  -6 206.028 42.2488   7
 -22  23   9 34.1760 24.5496   5
  22 -23  -9 3.11109 34.3289   6
   0  23   7 87.0529 44.4163   8
 -23  23  -7 97.7822 63.8486   7
  23   0  -4 4.75360 25.3124   6
   0  23   4 55.4644 35.3503   8
 -23  23  -4 8.34933 43.7737   7
  23   0  -1 133.386 22.7509   6
 -23  23  -1 153.314 31.4025   4
   0  23   1 129.587 28.0925   8
 -23   0   1 138.399 20.9020   4
 -23  23   2 1149.61 113.743   4
 -23  23   2 1110.07 113.581   8
 -23  23   5 25.4347 38.4007   4
 -23  23   5-26.8734 36.0544   8
   0  23  -5-0.40093 30.1339   7
 -23  23   8 1.88956 29.4342   5
 -24  23   7 23.2029 39.9463   8
  -1  24  -7 78.4239 35.0453   7
 -24  23   7 44.2225 35.3801   5
 -24  23   4 284.475 43.5285   4
 -24  23   4 160.225 41.1644   8
 -24  23   1 541.370 53.3490   4
 -23  -1  -1 411.953 49.2780   4
 -24  23   1 458.303 52.4408   8
  -1  24   2 1850.75 158.794   8
  23   1  -2 1805.25 156.312   6
 -24  23  -2 1743.14 158.817   4
 -24  23  -2 1275.10 155.411   7
  23   1  -5 1475.58 143.463   6
  -1  24   5 1221.80 146.097   8
  23   1  -8-12.5119 33.1776   6
 -24  23  -8 96.5551 57.5293   7
  -2  24  -8 68.5108 35.7933   7
 -24  22   5 279.047 45.7326   8
  -2  24  -5 269.656 43.0073   7
 -24  22   2 27.5564 28.4518   8
 -24  22   2 20.9199 29.9949   4
  22   2  -1 92.4440 20.9851   6
 -24  22  -1 72.9445 28.3947   4
 -24  22  -1 37.0603 23.4967   8
  -2  24   1 79.8364 26.2890   8
  22   2  -4 57.6185 25.6481   6
  -2  24   4 44.0035 37.6751   8
 -24  22  -4 66.3301 46.2217   7
  22   2  -7 10.4047 34.9357   6
  -2  24   7-15.3509 43.9440   8
 -24  22  -7 17.6585 65.2085   7
 -24  21   9 137.650 29.2525   5
  24 -21  -9 161.314 36.8114   6
 -24  21   6 129.710 41.9640   8
  -3  24  -6 91.5794 35.5834   7
 -24  21   3 114.660 32.6734   8
  21   3   0 294.608 35.0562   6
 -24  21   0 300.901 38.6179   4
  -3  24   0 289.485 38.3824   8
 -24  21   0 228.593 35.3946   8
  21   3  -3 160.702 27.8823   6
  -3  24   3 148.766 39.3702   8
 -24  21  -3 172.903 37.5592   7
  -3  24   6-3.41437 41.8177   8
 -24  21  -6 35.3331 60.7321   7
  21   3  -9 53.7624 29.6910   6
 -24  21  -9 116.353 48.2914   7
  24 -20  -7 44.5099 49.5769   6
  -4  24  -7 16.5898 34.8070   7
 -24  20   4 482.051 58.5626   8
 -24  20   1 14.9680 24.4588   8
  20   4  -2 414.956 46.3919   6
  -4  24   2 417.046 52.1328   8
  -4  24   5 868.269 86.5855   8
  -4  24   5 651.965 75.6003   5
  20   4  -8 95.8598 35.7146   6
 -24  20  -8 204.896 66.4249   7
 -24  19   8 7.28165 29.3813   5
  -5  24  -8 16.0148 36.1001   7
 -24  19   5 9.75923 35.5167   8
 -24  19   2 16.5686 27.3532   8
 -19  -5  -2 36.0561 57.7771   3
  19   5  -1 693.452 68.4607   6
  -5  24   1 631.495 70.7036   8
  19   5  -4 191.487 30.1779   6
  -5  24   4 204.229 42.5121   8
  -5  24   4 131.868 24.0230   5
 -24  19  -4 214.247 49.4369   7
  19   5  -7 74.2220 35.2932   6
  -5  24   7 62.0375 49.0231   8
 -24  19  -7 152.208 69.5041   7
  24 -18  -9 32.3082 34.0908   6
 -24  18   9 4.50024 23.8612   5
  -6  24  -9 93.0948 34.3311   7
  -6  24  -6 20.7813 33.7702   7
 -24  18   6 16.5460 41.3962   8
  -6  24  -3 273.661 41.9335   7
 -24  18   3 317.970 41.1673   8
 -24  18   3 264.868 42.5859   4
 -24  18   0 93.0231 22.1462   8
  -6  24   0 77.6397 27.6068   8
  18   6  -3 73.9935 23.2667   6
  -6  24   3 73.7291 38.8385   8
  -6  24   3 32.6117 16.5487   5
 -24  18  -3 33.0860 33.3692   7
 -24  18  -6 25.8910 70.1150   7
  18   6  -6-25.7980 29.5044   6
  -6  24   6 8.17618 43.3772   8
  -6  24   6-2.07701 21.7315   5
  18   6  -9 79.6973 29.0646   6
 -24  18  -9 127.087 52.8991   7
  24 -17  -7 65.4424 50.6304   6
 -24  17   7 22.6915 32.2687   5
  -7  24  -7 57.1329 37.6883   7
 -24  17   4 50.0465 31.9944   8
 -24  17   4 35.8256 33.1976   4
 -24  17   1 115.851 27.9768   8
 -24  17   1 168.234 29.5245   4
  17   7  -2 191.322 29.2953   6
  -7  24   2 186.759 38.3245   8
 -24  17  -5-11.3270 65.2659   7
  -7  24   5 30.6219 43.0394   8
  -7  24   5 14.5774 21.0454   5
  17   7  -8 29.3388 31.0047   6
  -7  24   8 35.0377 48.6578   8
 -24  17  -8-0.83446 65.8510   7
  -8  24  -8 29.3601 37.7915   7
 -24  16   8-9.73180 29.1940   5
 -24  16   5 1307.46 131.781   8
 -24  16   5 1267.99 130.123   4
 -24  16   2 2529.51 258.538   4
 -24  16   2 2885.30 258.607   8
 -16  -8  -2 2473.21 269.433   3
  16   8  -1 1111.82 99.1409   6
 -16  -8   1 1081.85 103.435   2
 -24  16  -1 838.819 97.8124   8
 -24  16  -1 1006.03 99.8046   4
  -8  24   1 1075.01 101.358   8
  -8  24   1 998.370 96.8755   4
  -8  24   4 402.164 55.0553   8
  -8  24   4 329.149 42.5187   5
  16   8  -7 534.094 67.4832   6
  -8  24   7 707.856 78.8747   8
  -8  24   7 517.712 63.1153   5
 -24  15   9 48.6726 23.5415   5
  -9  24  -9 59.5456 35.0086   7
  24 -15  -9 24.0405 34.8156   6
  24 -15  -6 628.401 82.1154   6
 -24  15   3 1132.72 121.821   4
 -24  15   3 1414.65 122.182   8
  -9  24  -3 1107.28 122.518   7
 -24  15   0 31.9416 23.6314   4
  -9  24   0 11.8337 14.6089   4
  -9  24   0-1.12970 26.1833   8
 -24  15  -3 149.119 40.2374   7
  -9  24   3 131.299 41.3130   8
  15   9  -6-10.7177 27.8212   6
  -9  24   6 35.1759 45.3410   8
  -9  24   6 3.44289 23.5296   5
  15   9  -9 114.914 30.2186   6
 -24  15  -9 262.019 56.2935   7
  24 -14  -7 183.483 54.4159   6
 -24  14   7 161.422 36.0281   5
  24 -14  -4 1320.80 140.572   6
 -24  14   4 1523.71 140.425   8
 -10  24  -4 1322.82 140.888   7
 -24  14   4 1414.91 139.023   4
  24 -14  -1 9.64479 17.5236   6
 -24  14   1 28.1165 24.6384   4
 -10  24  -1 25.5806 15.3347   4
  14  10  -2 73.4537 23.2112   6
 -10  24   2 36.5158 19.8512   4
  14  10  -2 103.536 46.2051   1
 -10  24   2 43.2499 32.2109   8
 -14 -10   2 71.4545 32.2783   2
 -10  24   5 25.7507 23.0756   5
  14  10  -5 29.0729 25.2028   6
 -10  24   5 64.9452 44.7341   8
 -24  14  -8 86.7772 75.0321   7
  14  10  -8 29.9102 30.9675   6
 -10  24   8 68.9453 50.7627   8
 -24  13   8 47.8028 27.3732   5
 -24  13   5 39.9787 32.1943   4
  24 -13  -5 76.1631 41.1251   6
 -11  24  -5 30.1901 35.2598   7
 -24  13   5 83.2458 43.8280   8
 -11  24  -2 191.474 27.8752   4
  24 -13  -2 180.372 28.2456   6
 -24  13   2 208.475 31.3231   4
 -11  24  -2 168.963 34.1962   7
  13  11  -1 236.444 32.1664   6
 -11  24   1 192.752 27.7990   4
  13  11  -4 1180.72 117.505   6
  13  11  -7 235.107 38.0134   6
 -11  24   7 214.622 35.4970   5
  24 -12  -9-0.90391 34.5970   6
 -12  24  -6 9.03375 37.6576   7
  24 -12  -6-6.24177 45.4061   6
 -24  12   3 30.2568 25.8450   4
  24 -12  -3 30.0573 24.7886   6
 -12  24  -3-9.26929 32.2381   7
 -24  12   0 78.7961 24.0824   4
 -12  24   0 83.7793 18.1643   4
 -12  24   3 61.0266 22.6516   4
  12  12  -6 123.546 32.3488   6
 -12  24   6 126.060 29.9846   5
  12  12  -6 166.166 34.4047   7
 -24  12  -9 64.5310 53.0011   7
  12  12  -9 59.9411 26.9101   6
 -24  11   7 20.0461 26.8923   5
 -13  24  -7 10.3047 43.6571   7
  24 -11  -4 341.235 48.5169   6
  11  13   4 340.337 50.1677   8
 -13  24  -4 345.975 52.3952   7
 -24  11   4 427.371 46.8716   4
 -13  24  -1 69.6341 20.0301   4
  24 -11  -1 39.6240 17.5539   6
 -13  24  -1 80.1395 48.5568   1
 -24  11   1 61.3346 22.8069   4
 -13  24   2 766.667 77.1366   4
 -11 -13   2 718.276 85.7852   2
  11  13  -2 917.727 95.4324   1
  13 -24  -2 690.233 98.4681   3
  11  13  -5-9.29458 25.0994   6
  11  13  -5-7.91675 28.3677   7
  11  13  -8 116.041 32.5434   6
 -13  24   8 151.506 29.5932   5
 -24  10   8 30.2525 23.4469   5
 -14  24  -8 29.7499 43.4825   7
 -24  10   5 138.356 31.3538   4
  10  14   5 85.0598 39.9816   8
  24 -10  -5 146.857 39.9195   6
 -14  24  -5 108.916 40.7261   7
  24 -10  -2 60.5786 21.3131   6
 -14  24  -2 57.3869 25.4429   4
 -24  10   2 63.6530 23.1027   4
 -14  24  -2 53.7378 28.7687   7
  14 -24  -1 83.6946 56.5326   3
 -14  24   1 119.414 22.7254   4
  10  14  -1 115.943 45.3560   1
 -14  24   1 93.9533 30.3148   8
 -14  24   4 12.2364 25.8109   4
  10  14  -4 38.0547 25.5954   6
 -14  24   4 26.6786 37.8177   8
  10  14  -7 25.5864 29.7243   6
 -14  24   7 10.9925 49.5581   8
 -14  24   7-12.7405 27.2290   5
  10  14  -7 48.2463 34.3865   7
 -15  24  -9 8.83055 37.7999   7
  24  -9  -9 1.37818 34.5919   6
  24  -9  -6 110.368 42.8896   6
 -24   9   6 62.0028 24.9852   5
 -15  24  -6 109.475 43.7194   7
 -24   9   3 2903.46 275.241   4
  24  -9  -3 2922.26 275.973   6
   9  15   3 2975.50 276.266   8
 -15  24  -3 2557.00 277.628   7
  24  -9   0 2645.86 293.163   6
 -15  24   0 3419.85 294.016   4
 -24   9   0 3385.46 294.404   4
 -15  24   0 3197.84 295.480   8
   9  15  -3 2657.02 226.371   6
 -15  24   3 2340.70 228.098   8
 -15  24   3 2109.56 224.816   4
   9  15  -6 246.373 37.9766   6
 -15  24   6 191.254 51.1357   8
   9  15  -6 283.302 40.6865   7
 -15  24   6 184.098 37.2910   5
 -24   9  -9 11.8575 52.7592   7
  15 -24  -9 23.9576 38.2080   6
 -24   8   7 750.967 79.6529   5
 -16  24  -7 803.479 90.9869   7
 -24   8   4 67.4263 25.5089   4
   8  16   4 21.9566 31.3169   8
  24  -8  -4 57.8716 28.2319   6
 -16  24  -4 26.0153 37.8467   7
  24  -8  -1 843.732 96.7996   6
 -24   8   1 1000.14 97.9104   4
 -16  24  -1 981.717 98.1144   4
   8  16   1 1244.78 98.8642   8
 -16  24  -1 930.723 110.863   1
  16 -24  -2 48.1448 54.1865   3
   8  16  -2 55.7229 30.1138   6
 -16  24   2 83.7961 23.8398   4
 -16  24   2 70.3633 31.7410   8
   8  16  -5 7.63665 26.3693   6
 -16  24   5 28.6357 41.8337   8
   8  16  -5 19.6979 27.1227   7
   8  16  -8 157.838 36.6678   6
 -16  24   8 258.620 50.8236   8
 -16  24   8 173.709 34.3062   5
  24  -7  -8 226.510 48.3516   6
 -24   7   8 181.533 29.2026   5
 -17  24  -8 218.772 50.4442   7
  24  -7  -5 700.705 72.5397   6
   7  17   5 579.124 73.6874   8
 -17  24  -5 616.236 77.2216   7
 -24   7   2 1027.77 96.5872   4
  24  -7  -2 997.928 96.4097   6
   7  17   2 1042.33 97.9195   8
 -17  24  -2 781.875 98.3818   7
   7  17  -1 4.26576 44.2837   1
 -17  24   1 11.8886 26.0550   8
 -17  24   1 2.73220 21.7091   4
 -24   7  -1 8.88188 24.2222   4
   7  17  -1 23.5080 19.1520   8
  17 -24  -1 18.7539 46.6269   3
   7  17  -4 51.6946 28.1978   6
 -17  24   4 100.013 29.6531   4
 -17  24   4 81.5932 36.7070   8
   7  17  -7 121.647 32.6388   6
 -17  24   7 75.6137 47.0912   8
 -17  24   7 66.1544 31.4362   5
   7  17  -7 130.996 36.5323   7
  24  -6  -9 56.6390 34.8283   6
 -18  24  -9 90.7168 42.2732   7
   6  18   6 20.9096 41.5831   8
  24  -6  -6 56.7546 38.5018   6
 -24   6   6 25.2908 22.7984   5
 -18  24  -6-3.15754 47.0601   7
  24  -6  -3 649.457 65.1840   6
   6  18   3 540.102 67.8267   8
 -18  24  -3 606.319 71.8335   7
 -24   6   3 646.764 64.4375   4
  24  -6   0 935.077 105.130   6
 -18  24   0 1168.26 107.156   4
 -24   6   0 1070.75 106.756   4
   6  18   0 1314.21 106.609   8
 -18  24   0 979.327 107.870   8
  18 -24   0 1213.37 115.429   3
   6  18  -3 2650.25 229.377   6
 -18  24   3 2236.42 229.101   8
 -18  24   3 2231.92 226.885   4
   6  18  -6 1522.72 128.766   6
 -18  24   6 1046.00 127.331   5
 -18  24   6 1336.58 131.358   8
   6  18  -6 1241.01 129.027   7
  18 -24  -9 68.9354 38.2262   6
 -24   5   7 165.718 27.8593   5
 -19  24  -7 232.006 55.4644   7
 -24   5   4 31.5647 23.4315   4
  24  -5  -4 24.4298 25.6700   6
   5  19   4 38.8946 32.6564   8
 -19  24  -4 34.3232 40.8342   7
 -19  24  -1 180.812 48.2320   1
 -19  24  -1 194.616 32.0531   4
  24  -5  -1 192.672 26.1868   6
   5  19   1 192.105 31.3274   8
 -24   5   1 193.463 26.6774   4
 -19  24   2 161.395 30.6661   4
 -19  24   2 148.762 34.2047   8
   5  19  -5 20.4910 30.9374   6
 -19  24   5 18.3011 38.7752   8
   5  19  -5 19.6391 28.1783   7
 -19  24   8 17.5356 41.9619   8
 -19  24   8 59.5690 29.8641   5
  24  -4  -8 24.0589 39.0771   6
 -20  24  -8 9.57841 48.5230   7
   4  20   5 183.492 41.9663   8
  24  -4  -5 184.800 37.2261   6
 -20  24  -5 278.739 53.3340   7
 -20  24  -2 145.484 48.3633   1
 -24   4   2 76.1367 20.6694   4
   4  20   2 72.9150 29.5440   8
  20 -24   2 8.35025 39.8675   2
  24  -4  -2 74.2284 21.5116   6
 -20  24  -2 72.4313 26.9323   7
 -24   4  -1 24.5968 26.2285   4
 -20  24   1 22.4366 24.6249   8
 -20  24   1 10.4715 23.7096   4
 -20  24   4 119.407 33.6187   4
 -20  24   4 101.336 37.2268   8
 -20  24   7 37.6083 41.5669   8
   4  20  -7 66.2815 34.3928   7
 -20  24   7 13.7138 31.6871   5
  24  -3  -9 58.2125 30.5508   6
 -21  24  -9 80.1945 41.9952   7
  24  -3  -6 46.9308 35.9381   6
   3  21   6 52.8652 43.0446   8
 -24   3   6 33.5595 18.9279   5
 -21  24  -6 76.4669 53.6178   7
 -24   3   3 5.53712 19.3854   4
  24  -3  -3 4.75252 22.0572   6
   3  21   3-0.32572 30.6608   8
 -21  24  -3-9.59933 35.0091   7
 -21  24   0 42.6029 26.1957   4
  24  -3   0 41.0079 16.5984   6
   3  21   0 29.7881 23.9133   8
 -21  24   0 70.8183 24.6229   8
 -24   3   0 40.9711 19.7337   4
 -21  24   3 155.321 33.0268   4
 -21  24   3 108.556 35.4370   8
 -21  24   6 30.4029 37.5251   8
   3  21  -6 50.4227 32.6495   7
  21 -24  -9 28.5319 34.6844   6
 -21  24   9 25.4552 22.8856   5
   2  22   7-7.36382 43.5823   8
 -22  24  -7 4.40743 56.1948   7
  24  -2  -4 1810.75 169.038   6
   2  22   4 1574.86 170.534   8
 -22  24  -4 1782.83 174.182   7
 -24   2   1 1655.09 169.718   4
  24  -2  -1 1795.32 170.892   6
 -22  24  -1 1882.84 172.386   4
   2  22   1 1855.71 171.905   8
 -22  24   2 460.490 51.3492   4
 -22  24   2 378.540 50.6477   8
 -22  24   5 220.327 41.8512   4
 -22  24   5 202.424 41.8510   8
   2  22  -5 165.935 36.3607   7
 -22  24   8-16.0434 28.4816   5
  24  -1  -8 243.646 45.9450   6
 -23  24  -8 296.092 62.3571   7
  24  -1  -5 1064.78 105.475   6
   1  23   5 1006.02 108.196   8
 -24   1   5 984.484 100.746   5
 -23  24  -5 1213.12 116.384   7
  24  -1  -2 363.529 41.6456   6
 -23  24  -2 384.182 49.1761   4
   1  23   2 470.965 48.4526   8
 -23  24  -2 281.675 42.3969   7
 -24   1   2 356.256 39.0398   4
 -24   1  -1 47.0391 24.5224   4
 -23  24   1 58.5750 25.1842   8
 -23  24   1 109.809 28.2677   4
 -23  24   4 0.36439 34.9749   4
 -23  24   4 25.1921 33.6715   8
 -23  24   7 1.80995 40.4708   8
   1  23  -7 34.0256 34.5491   7
 -23  24   7 67.5112 32.3679   5
  24   0  -9 15.5698 27.2818   6
  24   0  -6 45.8020 33.5364   6
   0  24   6 9.52334 41.8249   8
 -24  24  -6 41.8695 60.1465   7
  24   0  -3 244.983 33.3702   6
   0  24   3 184.023 40.2980   8
 -24  24  -3 205.383 40.2704   7
  24   0   0 401.590 43.9928   6
 -24   0   0 306.023 41.6374   4
 -24  24   0 536.121 48.9705   4
 -24  24   0 383.075 46.9754   8
   0  24   0 504.169 48.2122   8
 -24  24   3 29.9547 32.7723   4
 -24  24   3 34.5255 31.5083   8
   0  24  -6 0.43207 32.4450   7
 -24  24   6-17.6728 39.1081   8
 -24  24   9 28.0317 21.9682   5
  24 -24  -9-7.36794 31.6649   6
  25 -24  -8 305.605 49.8815   6
 -25  24   8 267.803 41.4702   5
 -25  24   5 196.421 42.3480   4
 -25  24   5 104.707 40.5102   8
 -25  24   2 848.627 82.4323   4
 -25  24   2 741.734 82.2687   8
 -24  -1  -2 708.710 84.3128   4
  24   1  -1 137.820 23.7675   6
 -25  24  -1 142.044 32.5521   4
  -1  25   1 141.190 29.8537   8
 -25  24  -1 50.9188 26.3301   8
  24   1  -4 18.7400 25.6072   6
  -1  25   4-18.4700 37.3076   8
 -25  24  -4-6.18914 43.9813   7
  -1  25   7 20.4937 42.2355   8
 -25  24  -7 102.292 64.3598   7
 -25  23   6-7.27122 39.9586   8
  -2  25  -6 17.3112 32.7571   7
 -25  23   3 56.4364 33.7557   4
 -25  23   3 16.0405 32.0359   8
 -25  23   0 167.547 33.9373   4
 -25  23   0 140.189 29.4257   8
  -2  25   0 217.855 33.5059   8
  23   2  -3 198.687 31.5110   6
  -2  25   3 221.211 41.5467   8
 -25  23  -3 215.196 39.6757   7
  -2  25   6 292.597 53.7135   8
 -25  23  -6 381.403 75.9713   7
  23   2  -9 92.6052 28.9889   6
 -25  22   7 40.2983 42.4249   8
  25 -22  -7 32.1779 46.6733   6
  -3  25  -7 37.8831 33.8520   7
  -3  25  -4 63.0009 31.9356   7
 -25  22   4 97.5708 37.5760   8
 -25  22   1 17.1689 26.4861   8
 -25  22   1 8.48461 27.7915   4
  22   3  -2 119.954 24.5663   6
  -3  25   2 113.535 33.8888   8
  22   3  -5 521.745 60.3893   6
  -3  25   5 486.746 67.6497   8
 -25  22  -5 604.409 81.2402   7
  22   3  -8 41.5176 33.0377   6
 -25  22  -8 30.4210 62.2742   7
 -25  21   8 167.053 35.2388   5
  -4  25  -8 142.022 39.6164   7
 -25  21   5 41.2371 37.2911   8
  -4  25  -5 17.6971 30.0235   7
 -25  21   2 860.225 89.7351   8
  21   4  -1 1451.59 121.246   6
 -25  21  -1 1411.16 122.821   4
  -4  25   1 1303.29 122.327   8
  21   4  -4 223.205 34.5657   6
  -4  25   4 209.234 46.5672   8
 -25  21  -4 297.869 52.9925   7
  21   4  -7 110.140 35.6378   6
  -4  25   7 54.9354 45.7462   8
 -25  21  -7 96.5491 70.8424   7
  25 -20  -9 6.54683 31.3571   6
 -25  20   9 15.6186 23.1082   5
 -25  20   6-8.99917 42.8800   8
  -5  25  -6 19.1782 31.8795   7
 -25  20   3 336.640 47.3855   8
 -25  20   0 22.7069 20.7666   8
  -5  25   0 33.7870 26.7650   8
  20   5  -3 111.865 25.2105   6
  -5  25   3 85.6460 39.9391   8
 -25  20  -3 126.869 34.6913   7
  -5  25   6 227.436 53.5752   8
 -25  20  -6 486.848 76.9289   7
  20   5  -9-2.29869 26.4412   6
 -25  20  -9-30.8433 46.9297   7
 -25  19   7 27.3473 32.5923   5
 -25  19   4 470.494 57.3806   8
 -25  19   4 423.944 57.4083   4
 -25  19   1 1526.13 149.437   8
  19   6  -2 199.444 29.3144   6
  -6  25   2 179.764 39.5141   8
  -6  25   5 672.259 71.4704   8
  -6  25   5 455.799 57.5104   5
  19   6  -8 196.018 41.0441   6
  -6  25   8 263.805 54.5148   8
 -25  18   8 48.6236 28.8761   5
  -7  25  -8 49.3734 36.7680   7
 -25  18   5 1066.83 111.994   8
 -25  18   5 1049.98 110.366   4
 -18  -7  -2 640.526 98.3762   3
 -25  18   2 701.867 77.9986   4
 -25  18   2 800.142 78.5035   8
  18   7  -1 26.1103 20.0844   6
  -7  25   1-11.7469 27.7327   8
 -25  18  -1-2.83673 20.4394   8
  -7  25   4 125.208 42.6700   8
  -7  25   4 65.7870 20.1927   5
 -25  18  -4 175.837 48.6856   7
  -7  25   7 66.4403 48.5318   8
  18   7  -7 15.5181 31.3891   6
 -25  18  -7 52.8752 75.3537   7
  25 -17  -9-5.53797 32.7128   6
 -25  17   9 19.9859 22.5088   5
  -8  25  -9-5.39674 32.8868   7
 -25  17   6 129.655 50.7470   8
  25 -17  -6 122.829 52.0104   6
 -25  17   3 344.688 46.2387   8
 -25  17   3 350.088 45.8694   4
  -8  25  -3 289.265 45.1397   7
 -25  17   0 230.199 34.3458   4
  -8  25   0 192.806 36.2087   8
 -25  17   0 246.712 31.6969   8
  17   8  -3 183.021 29.9301   6
  -8  25   3 180.783 44.1520   8
 -25  17  -3 208.609 37.8505   7
 -25  17  -6-11.9716 77.3837   7
  -8  25   6 10.9643 47.8897   8
  17   8  -6-5.82355 28.3248   6
  -8  25   6 0.71196 22.0738   5
  17   8  -9 15.1231 25.4197   6
 -25  17  -9 94.3457 51.6384   7
  25 -16  -7 16.6470 47.9467   6
 -25  16   7 34.1027 30.7017   5
 -25  16   4 202.284 39.6561   4
  -9  25  -4 197.105 37.9407   7
 -25  16   4 201.359 42.7421   8
  25 -16  -1 93.2358 22.2862   6
 -25  16   1 140.930 29.1850   4
  16   9  -2 565.429 64.1278   6
  -9  25   2 647.835 69.1214   8
  -9  25   2 614.836 61.6569   4
  16   9  -5 853.596 80.2300   6
  -9  25   5 863.332 89.4866   8
  -9  25   5 592.207 78.0772   5
  16   9  -8 111.667 34.3719   6
  -9  25   8 118.951 51.1326   8
 -25  16  -8 184.682 70.6684   7
 -25  15   8 18.9826 27.9985   5
 -25  15   5 337.331 46.9151   4
  25 -15  -5 303.077 53.8118   6
 -25  15   5 389.755 56.6264   8
 -10  25  -5 222.328 47.5837   7
  25 -15  -2 126.869 27.9700   6
 -25  15   2 204.901 32.4892   4
  15  10  -1 132.014 26.9568   6
 -25  15  -1 109.357 28.5170   4
 -10  25   1 147.688 31.9493   8
 -10  25   1 128.088 21.0292   4
 -10  25   4 172.874 46.0744   8
 -25  15  -7 88.0676 84.4221   7
  15  10  -7 2.42262 28.6634   6
 -10  25   7 45.5610 51.5292   8
 -10  25   7 18.7079 24.5701   5
  25 -14  -9 94.4498 34.8581   6
 -25  14   9 61.3689 22.6372   5
  25 -14  -6 93.3222 47.0820   6
 -11  25  -6 106.411 41.5253   7
 -25  14   3 184.455 32.6748   4
  25 -14  -3 146.243 31.6982   6
 -11  25  -3 97.4847 33.3807   7
 -25  14   0 5.55176 23.7852   4
 -11  25   0 18.7295 15.6801   4
 -11  25   0 29.3907 28.7312   8
 -11  25   3 558.080 58.7452   4
  14  11  -6 11.0390 27.8718   6
 -11  25   6 19.8901 48.1703   8
 -11  25   6 10.8192 24.0500   5
  14  11  -9 94.4612 28.9028   6
 -25  14  -9 230.550 52.3691   7
  25 -13  -7-44.1221 49.4222   6
 -25  13   7 26.2597 29.4292   5
 -12  25  -7 11.0125 43.1843   7
 -25  13   4 88.1373 31.3044   4
  25 -13  -4 32.7932 33.0183   6
 -12  25  -4 38.6910 35.2356   7
 -12  25  -1 9.91213 17.6245   4
  25 -13  -1-6.39893 17.9387   6
 -25  13   1 1.62571 24.2719   4
  13  12  -2 364.808 41.5181   6
  13  12  -2 417.350 60.3108   1
 -13 -12   2 358.391 52.5980   2
 -12  25   2 302.827 39.2457   4
  13  12  -5 223.834 33.3201   6
 -12  25   5 157.271 30.2312   5
 -25  13  -8 167.050 76.6082   7
  13  12  -8 72.2286 29.8756   6
 -25  12   8 100.431 26.7472   5
 -13  25  -8 60.8491 42.9519   7
  25 -12  -5 1400.63 142.720   6
 -13  25  -5 1273.60 142.324   7
 -25  12   5 1480.12 139.216   4
 -25  12   2 3997.51 346.139   4
  25 -12  -2 3452.02 345.847   6
 -13  25  -2 3201.87 347.183   7
 -13  25  -2 3677.86 345.400   4
 -13  25   1 2731.10 264.498   4
  12  13  -1 3425.97 276.332   1
 -25  12  -1 2637.04 265.508   4
  13 -25  -1 2822.54 277.094   3
  12  13  -4 1173.12 117.469   6
  12  13  -7 206.774 34.4969   6
 -13  25   7 143.256 31.4336   5
  25 -11  -9 75.7443 35.5536   6
 -14  25  -9 72.6359 35.1971   7
  25 -11  -6 730.651 79.5254   6
 -14  25  -6 554.736 75.2887   7
 -25  11   3 1895.45 177.377   4
  25 -11  -3 1855.60 177.880   6
 -14  25  -3 1670.10 179.399   7
 -14  25   0 354.010 38.5741   4
 -25  11   0 313.720 41.1729   4
 -14  25   0 370.739 45.2866   8
  11  14  -3 396.394 47.5311   6
 -14  25   3 360.472 55.1844   8
 -14  25   3 400.542 45.1536   4
  11  14  -6 84.1156 29.6818   6
 -14  25   6 65.1443 27.5137   5
 -25  11  -9 331.010 60.7653   7
  25 -10  -7 287.185 55.7816   6
 -25  10   7 269.959 38.6865   5
 -15  25  -7 343.627 55.3187   7
  25 -10  -4 3375.96 328.368   6
  10  15   4 3563.18 328.439   8
 -15  25  -4 3166.04 329.933   7
 -25  10   4 3431.18 326.778   4
 -25  10   1 278.909 32.5144   4
 -15  25  -1 245.418 31.4325   4
  25 -10  -1 186.574 28.5694   6
 -15  25   2 26.2358 21.4963   4
 -15  25   2 23.6390 31.8658   8
  15 -25  -2 75.3967 58.7236   3
  10  15  -5 67.9311 28.0888   6
 -15  25   5 66.8175 44.0517   8
  10  15  -8 109.579 30.6749   6
 -15  25   8 48.4680 48.5262   8
 -15  25   8 38.4763 26.1943   5
 -25   9   8 17.0874 21.5323   5
 -16  25  -8 31.7598 44.9719   7
   9  16   5 19.3247 38.1055   8
  25  -9  -5 22.4416 34.9866   6
 -16  25  -5-22.7934 41.1197   7
 -16  25  -2-5.51027 26.5270   4
 -16  25  -2 11.7515 27.4097   7
  25  -9  -2 20.1822 18.5224   6
   9  16   2 25.7010 25.9990   8
 -25   9   2 23.9931 22.7438   4
 -25   9  -1 189.932 32.2284   4
   9  16  -1 280.957 54.7791   1
 -16  25   1 187.124 28.9771   4
 -16  25   1 162.165 35.3832   8
  16 -25  -1 246.838 58.8346   3
   9  16  -4 2555.17 238.761   6
 -16  25   4 2394.10 240.969   8
 -16  25   4 2423.08 237.891   4
   9  16  -7 714.713 78.3460   6
 -16  25   7 902.444 89.1467   8
 -16  25   7 654.158 77.1229   5
  25  -8  -9 56.1517 32.3945   6
 -17  25  -9-6.41321 36.9030   7
  25  -8  -6-7.62122 40.0572   6
   8  17   6-44.4093 44.2029   8
 -25   8   6-5.18999 22.8935   5
 -17  25  -6-13.6869 44.5694   7
 -25   8   3 9.98635 23.2704   4
   8  17   3 28.5272 30.2616   8
  25  -8  -3 13.4751 22.4768   6
 -17  25  -3 31.7080 34.7254   7
  17 -25   0 83.4186 49.2442   3
 -25   8   0 42.9838 23.3706   4
  25  -8   0 35.6493 15.0094   6
   8  17   0 29.3315 19.0963   8
 -17  25   0 83.6833 26.7710   8
 -17  25   0 64.9363 22.4494   4
   8  17  -3 156.766 33.2476   6
 -17  25   3 142.822 30.4095   4
 -17  25   3 140.321 39.9986   8
 -17  25   6 205.489 48.5630   8
   8  17  -6 146.853 34.1043   6
   8  17  -6 153.532 36.4522   7
 -17  25   6 140.959 33.4648   5
 -25   8  -9 47.4840 47.8048   7
  17 -25  -9 0.95255 36.9854   6
 -25   7   7 2.00852 21.0360   5
 -18  25  -7 54.5641 46.7450   7
 -25   7   4 198.881 31.4746   4
  25  -7  -4 235.569 33.8559   6
   7  18   4 156.209 38.9091   8
 -18  25  -4 192.375 46.2972   7
 -18  25  -1 14.8785 24.1528   4
 -18  25  -1 12.7130 44.0977   1
  25  -7  -1 12.7498 17.2860   6
   7  18   1-0.44822 24.0107   8
 -25   7   1-7.10012 19.5205   4
 -18  25   2 945.196 98.0065   4
 -18  25   2 1030.36 101.116   8
   7  18  -5 120.169 32.7114   6
 -18  25   5 114.204 42.7908   8
 -18  25   8 167.466 46.2298   8
 -18  25   8 132.075 30.6428   5
 -25   6   8 68.8166 19.6084   5
 -19  25  -8 123.818 49.5602   7
  25  -6  -5 33.5270 32.3984   6
   6  19   5 58.1751 38.4242   8
 -19  25  -5 57.2279 44.7654   7
   6  19   2 21.0436 26.9544   8
  25  -6  -2 41.9318 20.2097   6
 -19  25  -2-14.7873 29.8190   4
 -25   6   2 33.6641 20.4002   4
 -19  25  -2 32.8965 26.9039   7
 -19  25   1 274.270 37.1843   4
 -25   6  -1 309.635 39.0838   4
   6  19  -1 282.311 34.9018   8
 -19  25   1 266.460 38.8968   8
   6  19  -4 7.35678 31.4371   6
 -19  25   4-22.1013 29.5109   4
 -19  25   4-11.2993 35.7146   8
 -19  25   7 216.656 47.9534   8
 -19  25   7 118.566 33.9509   5
  25  -5  -9 30.6827 30.5501   6
 -20  25  -9 9.28773 37.4571   7
  25  -5  -6 51.0535 37.3159   6
   5  20   6 21.6000 41.9040   8
 -25   5   6 98.5009 22.4144   5
 -20  25  -6 43.1286 51.1816   7
  25  -5  -3 2265.36 215.115   6
   5  20   3 2335.32 216.385   8
 -20  25  -3 2010.98 217.392   7
 -25   5   3 2228.81 214.123   4
  25  -5   0 1219.89 127.417   6
 -20  25   0 1382.33 129.357   4
 -25   5   0 1476.08 128.749   4
   5  20   0 1383.55 128.470   8
 -20  25   0 1132.96 129.863   8
 -20  25   3 1313.47 145.726   8
 -20  25   3 1561.61 143.933   4
 -20  25   6 774.738 89.0790   8
   5  20  -6 821.575 86.7303   7
  20 -25  -9 23.7435 34.4130   6
 -25   4   7 416.813 47.1105   5
 -21  25  -7 509.455 70.1924   7
  25  -4  -4 220.492 35.8287   6
   4  21   4 267.872 42.2513   8
 -21  25  -4 214.437 50.1973   7
 -25   4   4 234.034 31.9435   4
 -25   4   1 457.574 52.0671   4
  25  -4  -1 465.127 52.7479   6
 -21  25  -1 538.210 57.2211   4
   4  21   1 625.935 56.5771   8
 -21  25   2 77.7438 29.1815   4
 -21  25   2 58.0345 30.5925   8
 -21  25   5 49.1159 35.0952   4
 -21  25   5-18.7274 38.7060   8
 -21  25   8 89.0464 30.1518   5
  25  -3  -8-20.5771 36.0784   6
 -22  25  -8 121.588 53.2070   7
  25  -3  -5 259.405 39.3952   6
   3  22   5 209.615 43.3531   8
 -25   3   5 217.369 29.7830   5
 -22  25  -5 243.385 55.6365   7
  25  -3  -2 135.385 25.5256   6
 -22  25  -2 166.252 35.9818   4
 -25   3   2 137.858 23.2533   4
   3  22   2 170.615 34.9717   8
 -22  25  -2 117.757 29.0358   7
 -22  25   1 1539.25 138.620   4
 -25   3  -1 1338.37 138.315   4
 -22  25   1 1238.43 138.270   8
   3  22  -1 1524.48 138.074   8
 -22  25   4 124.911 35.5641   4
 -22  25   4 125.080 38.0511   8
 -22  25   7 11.1791 40.4669   8
 -22  25   7 33.1621 32.2650   5
  25  -2  -9 42.1389 27.5268   6
  25  -2  -6 971.294 97.8591   6
   2  23   6 788.549 99.1681   8
 -23  25  -6 1006.90 108.744   7
 -23  25  -3 355.777 51.6612   7
  25  -2  -3 427.749 46.3351   6
   2  23   3 359.243 52.4833   8
 -25   2   3 406.038 43.2636   4
  25  -2   0 122.521 21.5295   6
   2  23   0 126.010 27.2187   8
 -23  25   0 85.0875 28.9077   8
 -25   2   0 125.318 23.6428   4
 -23  25   0 109.550 29.9615   4
 -23  25   3 399.798 49.4038   4
 -23  25   3 327.997 50.1409   8
 -23  25   6 93.3419 40.1406   8
  23 -25  -9 332.716 45.0118   6
 -23  25   9 273.578 37.4368   5
   1  24   7 81.9935 42.8225   8
 -24  25  -7 61.7485 59.5158   7
  25  -1  -4 102.052 28.1202   6
   1  24   4 116.504 39.0951   8
 -24  25  -4 153.545 50.4504   7
 -24  25  -1 40.2528 29.7831   4
  25  -1  -1 52.2682 19.2477   6
 -25   1   1 32.9505 17.5572   4
   1  24   1 48.3075 27.2299   8
 -24  25  -1 23.2194 25.6382   8
 -24  25   2 1820.66 160.699   4
 -25   1  -2 1573.62 162.338   4
 -24  25   2 1488.84 160.211   8
 -24  25   5 374.839 57.8948   8
 -24  25   5 483.654 58.1885   4
 -24  25   8 2.18199 27.7247   5
  25   0  -8 42.9855 33.0144   6
 -25  25  -8 84.8067 58.1049   7
   0  25   5 212.855 46.4245   8
  25   0  -5 213.350 38.2386   6
 -25  25  -5 257.364 62.0111   7
  25   0  -2 73.8139 23.3972   6
 -25  25  -2 83.9745 35.7648   4
   0  25   2 98.5241 34.0291   8
 -25   0  -1 254.864 38.7885   4
 -25  25   1 395.286 43.2531   4
   0  25  -1 331.787 40.7996   8
 -25  25   1 287.192 41.9270   8
 -25  25   4 125.017 38.8380   4
 -25  25   4 66.5147 36.6005   8
 -25  25   7 61.1012 39.9310   8
 -25  25   7 23.2967 32.8047   5
 -26  25   6-0.90543 39.8077   8
 -26  25   3 1040.28 103.320   4
 -26  25   3 940.802 102.451   8
 -26  25   0 38.2286 24.3099   8
  -1  26   0 74.6298 27.6744   8
 -26  25   0 38.7172 29.5120   4
  25   1  -3-0.61374 22.6451   6
  -1  26   3 3.10508 35.0310   8
 -26  25  -3-15.4632 30.0398   7
  25   1  -6 86.0046 34.1881   6
  -1  26   6 102.982 43.2276   8
 -26  25  -6 106.915 65.5257   7
 -26  24   7 0.45133 40.5538   8
  26 -24  -7 33.8424 43.0385   6
 -26  24   4 335.273 55.4367   8
 -26  24   4 485.798 56.8994   4
 -26  24   1-4.13379 28.1825   8
  -2  26  -1 35.4743 27.7747   8
 -26  24   1 14.3530 28.7072   4
  24   2  -2 44.2015 21.4447   6
 -26  24  -2 11.5605 36.0394   4
  -2  26   2 21.8555 33.1136   8
  24   2  -5-1.15208 27.2400   6
  -2  26   5-26.2906 41.4589   8
 -26  24  -5 16.0638 58.5511   7
  24   2  -8-20.6710 31.4010   6
 -26  24  -8-30.1302 60.5369   7
  26 -23  -8 26.6737 38.0500   6
 -26  23   5 35.9286 37.2410   8
  -3  26  -5 15.2714 31.2639   7
 -26  23   2 1110.78 108.617   4
 -26  23   2 1016.19 108.867   8
  23   3  -1 31.2826 20.7013   6
 -26  23  -1 34.6970 29.4481   4
  -3  26   1 73.1273 27.4444   8
 -26  23  -1 3.29513 23.0424   8
  23   3  -4 126.842 28.4166   6
  -3  26   4 46.7338 40.0530   8
 -26  23  -4 168.041 47.4118   7
  23   3  -7 128.117 36.3488   6
  -3  26   7 127.305 45.3849   8
 -26  23  -7 179.239 70.3027   7
 -26  22   9 9.10259 20.7620   5
 -26  22   6 190.012 46.3345   8
  -4  26  -6 114.871 37.3936   7
 -26  22   3 209.657 40.5234   8
 -26  22   0 1174.21 104.717   4
 -26  22   0 887.627 102.516   8
  -4  26   0 1128.70 105.102   8
  22   4  -3 1910.11 175.480   6
  -4  26   3 1611.01 178.614   8
  -4  26   6 631.863 82.2245   8
 -26  22  -6 887.574 103.140   7
  26 -21  -7 110.361 47.2580   6
  -5  26  -7 89.0817 36.7782   7
 -26  21   7 105.286 35.0938   5
 -26  21   4 868.516 93.2308   8
 -26  21   1 16.6783 27.5100   8
  21   5  -2 227.177 31.7781   6
  -5  26   2 208.783 40.8581   8
  -5  26   5-6.57568 43.0253   8
 -26  21  -5 44.8897 57.8857   7
  21   5  -8 20.0184 30.8136   6
 -26  21  -8 36.5287 64.2026   7
  26 -20  -8 50.8579 42.2475   6
 -26  20   8 68.4942 30.4210   5
  -6  26  -8 88.5252 34.8267   7
 -26  20   5 513.093 65.9632   8
 -26  20   5 485.309 63.3158   4
 -26  20   2 156.422 35.1900   8
  20   6  -1 1158.95 93.8669   6
  -6  26   1 1065.12 95.7029   8
  20   6  -4 17.5907 23.8227   6
  -6  26   4 5.10733 40.2931   8
 -26  20  -4-11.6382 46.1326   7
  20   6  -7 12.0932 31.5982   6
  -6  26   7-26.8101 46.7798   8
 -26  20  -7-16.4996 71.8319   7
 -26  19   9 214.071 31.6097   5
 -26  19   6-34.6553 48.6152   8
  26 -19  -6-29.5969 49.4343   6
 -26  19   3 32.2379 31.9011   4
 -26  19   3 3.57409 35.4419   8
 -26  19   0 374.281 43.2277   8
  -7  26   0 362.290 46.8573   8
  19   7  -3 924.047 93.2605   6
  -7  26   3 923.054 100.387   8
  -7  26   6 198.344 49.1184   8
  19   7  -6 188.088 35.2644   6
  -7  26   6 149.338 27.4699   5
  19   7  -9 50.9603 25.9055   6
  26 -18  -7 143.268 51.0557   6
 -26  18   7 166.650 37.3465   5
 -26  18   4 134.121 40.3251   8
 -26  18   4 113.264 37.0332   4
  -8  26  -4 80.2424 33.9104   7
  26 -18  -1 98.6796 24.1344   6
 -26  18   1 120.069 34.0916   8
 -26  18   1 136.974 30.2462   4
  18   8  -2 12.7401 22.4828   6
  -8  26   2 12.3332 34.2829   8
  -8  26   5 174.948 49.5486   8
  -8  26   5 134.381 25.6161   5
 -26  18  -5 191.828 66.0913   7
  18   8  -8-4.03621 30.4547   6
  -8  26   8-62.1931 47.7682   8
 -26  18  -8 8.09117 64.3569   7
 -26  17   8 167.019 33.1138   5
 -26  17   5 169.193 39.8721   4
 -26  17   5 193.493 51.1405   8
  26 -17  -5 117.995 47.9353   6
  -9  26  -5 122.355 36.1373   7
  26 -17  -2 75.2549 26.6151   6
 -26  17   2 116.468 30.4139   4
 -26  17   2 121.244 34.4694   8
  17   9  -1 2.93919 22.7811   6
 -26  17  -1-16.5360 26.1324   4
  -9  26   1-10.5836 29.0219   8
 -26  17  -4 122.117 50.9978   7
  -9  26   4 108.754 44.0203   8
  -9  26   4 93.3110 21.6308   5
  17   9  -7 18.2934 29.1414   6
  -9  26   7 68.9286 51.2189   8
 -26  17  -7 64.7400 77.8498   7
  26 -16  -9 17.6802 30.7758   6
 -26  16   9 49.5297 21.3384   5
 -10  26  -9 50.0561 31.9417   7
  26 -16  -6 341.302 59.7156   6
 -10  26  -6 274.937 49.0084   7
  26 -16  -3 129.720 33.7370   6
 -26  16   3 125.937 33.2611   4
 -10  26  -3 85.8532 33.8481   7
 -26  16   0 576.270 61.5791   4
 -10  26   0 565.965 64.1602   8
  16  10  -3 116.419 28.1728   6
 -10  26   3 210.526 43.5308   8
  16  10  -6 837.379 79.9575   6
 -10  26   6 827.452 89.9011   8
 -10  26   6 571.542 76.3472   5
  16  10  -9 15.7455 25.1299   6
 -26  15   7 125.632 34.1942   5
 -11  26  -7 118.415 40.5358   7
  26 -15  -4 1050.48 111.542   6
 -11  26  -4 947.780 110.421   7
 -26  15   4 1195.52 109.653   4
 -11  26  -1 1622.95 161.687   4
  26 -15  -1 1522.58 162.850   6
  15  11  -2 3361.84 282.619   6
 -11  26   2 3000.67 284.194   8
 -11  26   2 2694.25 280.619   4
  15  11  -5 273.016 35.6419   6
 -11  26   5 214.382 52.0417   8
 -11  26   5 175.498 32.2630   5
  15  11  -8 162.258 35.2193   6
 -11  26   8 201.710 54.5220   8
 -26  14   8 121.831 28.0551   5
 -12  26  -8 71.3932 38.4498   7
  26 -14  -5 1272.61 134.207   6
 -12  26  -5 1166.34 132.204   7
 -26  14   5 1400.75 130.270   4
 -26  14   2 382.158 42.7679   4
 -12  26  -2 330.373 37.6032   4
  26 -14  -2 276.383 39.8231   6
 -26  14  -1 5.94602 26.0624   4
 -12  26   1 3.99146 17.1683   4
  14  12  -4 80.1841 26.3819   6
 -26  14  -7 187.527 88.7374   7
  14  12  -7 106.640 31.8999   6
 -12  26   7 74.9401 27.3842   5
  26 -13  -9 108.011 34.4383   6
 -13  26  -9 101.198 35.0515   7
  26 -13  -6 54.0921 47.9660   6
 -13  26  -6 65.6870 40.9321   7
 -26  13   3 665.787 62.2446   4
  26 -13  -3 512.262 61.4374   6
 -13  26  -3 473.904 65.5558   7
 -13  26   0 536.670 56.8705   4
 -26  13   0 599.342 60.1874   4
 -13  26   3 214.047 31.1859   4
  13  13  -6 13.2265 27.9103   6
 -13  26   6 10.2408 24.2949   5
 -26  13  -9 25.7194 44.4931   7
 -26  12   7 105.109 28.9846   5
 -14  26  -7 113.597 46.5223   7
 -26  12   4 289.526 39.1020   4
  26 -12  -4 231.272 40.4958   6
 -14  26  -4 170.049 43.5751   7
 -14  26  -1 112.788 23.5845   4
  26 -12  -1 113.431 21.5615   6
 -26  12   1 139.380 27.3264   4
 -14  26   2 321.967 38.5199   4
  12  14  -5 1710.10 168.234   6
  12  14  -8 177.195 37.5035   6
 -14  26   8 218.449 32.5828   5
 -26  11   8 15.0992 22.5553   5
 -15  26  -8-13.8915 39.2874   7
 -26  11   5 48.4945 30.1072   4
  26 -11  -5 105.496 39.1873   6
  11  15   5 78.7806 42.0961   8
 -15  26  -5 54.4303 43.1017   7
 -15  26  -2 30.5839 24.5350   4
  26 -11  -2 5.53231 20.7911   6
 -26  11   2 6.29899 24.1154   4
 -26  11  -1 14.7629 26.0559   4
  11  15  -1 36.7779 45.8321   1
 -15  26   1 9.39764 20.6103   4
 -15  26   1 28.6710 28.5357   8
  11  15  -4 667.705 71.1451   6
 -15  26   4 567.288 79.0645   8
 -15  26   4 701.496 70.5354   4
  11  15  -7 59.9958 30.6271   6
 -15  26   7 88.2680 50.6173   8
 -15  26   7 36.0437 27.0889   5
 -16  26  -9-4.15421 32.6990   7
  26 -10  -9 22.9725 31.3086   6
  26 -10  -6-1.14934 41.7163   6
 -16  26  -6 14.7059 43.7998   7
 -26  10   3 918.041 86.0652   4
  26 -10  -3 820.643 86.1610   6
 -16  26  -3 752.723 89.6960   7
 -26  10   0-4.65518 23.4550   4
 -16  26   0-3.31908 27.4794   8
 -16  26   0 8.31681 20.7434   4
  10  16  -3 1010.89 99.5538   6
 -16  26   3 911.221 103.764   8
 -16  26   3 972.653 97.7862   4
  10  16  -6 41.2751 28.1424   6
 -16  26   6 27.3870 45.7956   8
 -16  26   6 21.6569 27.6542   5
  16 -26  -9 102.889 36.7226   6
  26  -9  -7-5.31751 44.6093   6
 -26   9   7 51.6749 23.3257   5
 -17  26  -7 32.7864 47.9668   7
 -26   9   4 23.2713 25.0237   4
   9  17   4 3.18696 34.1941   8
  26  -9  -4 18.6174 28.3163   6
 -17  26  -4-4.77599 41.3425   7
 -26   9   1 501.393 51.6210   4
  26  -9  -1 455.188 50.0922   6
 -17  26  -1 472.461 52.6498   4
 -17  26   2 154.793 28.6362   4
 -17  26   2 156.148 37.8824   8
   9  17  -5 58.9630 28.7665   6
 -17  26   5 36.8629 43.2430   8
 -17  26   8 41.4215 46.6974   8
 -17  26   8 30.4844 25.2422   5
 -26   8   8 255.332 33.4295   5
 -18  26  -8 312.478 53.7490   7
  26  -8  -5 644.980 70.6899   6
   8  18   5 627.133 73.1272   8
 -18  26  -5 529.957 76.3263   7
 -26   8   2 2471.08 218.678   4
  26  -8  -2 2224.07 218.628   6
 -18  26  -2 2339.71 219.920   4
 -18  26  -2 1809.58 219.922   7
   8  18   2 2420.64 219.711   8
 -18  26   1 583.068 63.2001   4
 -26   8  -1 642.337 65.3820   4
 -18  26   1 553.817 65.5052   8
   8  18  -1 625.745 62.3564   8
   8  18  -4 1562.47 133.145   6
 -18  26   4 1131.41 134.492   8
 -18  26   4 1256.43 130.877   4
   8  18  -7 12.4289 32.3220   6
 -18  26   7 19.0734 27.8014   5
 -18  26   7 48.0001 46.4438   8
 -19  26  -9 101.436 36.3005   7
  26  -7  -9 87.1922 32.3574   6
   7  19   6 123.599 45.2208   8
  26  -7  -6 138.173 42.4613   6
 -26   7   6 143.952 26.8598   5
 -19  26  -6 102.021 50.4078   7
 -26   7   3 11.2172 22.5716   4
  26  -7  -3 42.2586 23.7323   6
   7  19   3 53.8237 31.3723   8
 -19  26  -3 82.0347 33.7248   7
  26  -7   0 836.402 93.1929   6
 -19  26   0 1022.41 95.8011   4
 -26   7   0 1046.98 95.7326   4
   7  19   0 1086.96 94.6704   8
 -19  26   0 845.664 96.6998   8
 -19  26   3 800.816 92.5003   8
 -19  26   3 882.193 88.2546   4
   7  19  -6 5.52518 34.1786   6
 -19  26   6 32.0175 42.0359   8
 -19  26   6 22.2074 28.1321   5
  19 -26  -9 39.7359 34.3399   6
  26  -6  -7 0.56386 41.2384   6
 -26   6   7 47.7968 19.5336   5
 -20  26  -7 1.31939 50.3366   7
  26  -6  -4 1184.80 113.376   6
   6  20   4 1070.55 115.602   8
 -20  26  -4 1146.31 120.044   7
 -26   6   4 1103.14 110.996   4
  26  -6  -1 212.396 28.7009   6
 -20  26  -1 228.656 35.5469   4
   6  20   1 222.062 34.1350   8
 -26   6   1 218.002 29.6273   4
 -20  26   2 39.6784 27.3895   4
 -20  26   2 6.63582 31.7870   8
 -20  26   5 65.4434 41.8533   8
 -20  26   8 375.254 51.9856   8
 -20  26   8 242.700 40.6633   5
 -21  26  -8 14.0628 48.3719   7
   5  21   5 46.7583 38.6156   8
 -21  26  -5 73.5462 49.4032   7
  26  -5  -5 28.3895 31.0975   6
 -26   5   2 1069.60 108.547   4
  26  -5  -2 1120.39 109.288   6
   5  21   2 1145.54 111.931   8
 -21  26  -2 1111.48 112.579   4
 -21  26   1 458.688 48.6529   4
 -26   5  -1 480.691 50.0072   4
 -21  26   1 341.798 48.6320   8
   5  21  -1 387.760 46.3640   8
 -21  26   4 275.713 49.7601   8
 -21  26   4 342.633 45.1641   4
 -21  26   7 244.541 49.8438   8
 -21  26   7 232.755 40.2753   5
  26  -4  -9 2.09532 27.1898   6
  26  -4  -6 56.1224 37.2354   6
   4  22   6 14.8992 41.1995   8
 -26   4   6-5.55382 17.3199   5
 -22  26  -6 7.63080 52.8671   7
 -26   4   3 13.2144 19.9322   4
  26  -4  -3-9.86269 22.9450   6
   4  22   3 10.7853 33.7086   8
 -22  26  -3 10.3675 31.7830   7
  26  -4   0 17.8134 16.5945   6
   4  22   0-1.09834 21.5651   8
 -22  26   0 5.80080 26.8076   8
 -26   4   0 2.86306 21.4425   4
 -22  26   0 6.00340 26.9221   4
 -22  26   3 602.758 64.7561   4
 -22  26   3 522.371 66.7663   8
 -22  26   6 3.15102 38.9180   8
  22 -26  -9 14.4175 30.9624   6
 -23  26  -7 279.498 65.8116   7
  26  -3  -4 18.2907 26.3296   6
   3  23   4 17.2427 36.5564   8
 -23  26  -4 15.6179 44.6785   7
 -23  26  -1 45.0996 28.8674   4
  26  -3  -1 64.4131 20.3374   6
 -26   3   1 44.7015 19.2796   4
   3  23   1 57.4051 27.6778   8
 -23  26  -1 12.8298 27.1465   8
 -26   3  -2 155.090 43.2373   4
 -23  26   2 233.257 38.0847   4
 -23  26   2 218.967 37.9581   8
 -23  26   5 143.762 38.6683   4
 -23  26   5 100.101 41.0069   8
 -23  26   8-15.9252 26.7231   5
 -24  26  -8-6.94886 51.2840   7
  26  -2  -5 80.3450 31.5576   6
   2  24   5 90.1294 39.4912   8
 -24  26  -5 112.362 55.8293   7
  26  -2  -2 48.5620 20.9395   6
 -26   2   2 29.7526 18.4943   4
 -24  26  -2 15.0296 34.4202   4
   2  24   2 10.7244 32.1162   8
 -26   2  -1 15.2924 26.3827   4
 -24  26   1-2.27436 26.8165   8
   2  24  -1 15.1198 23.8781   8
 -24  26   1 2.21947 27.5597   4
 -24  26   4 28.5679 36.1984   4
 -24  26   4 3.62111 35.4989   8
 -24  26   7 12.7710 39.1587   8
 -24  26   7-0.50494 30.9638   5
  26  -1  -6 111.472 38.1769   6
   1  25   6 163.789 45.7298   8
 -25  26  -6 171.625 64.8530   7
  26  -1  -3 2525.91 227.635   6
   1  25   3 2319.59 229.462   8
 -25  26  -3 2160.15 228.792   7
 -26   1   0 734.468 80.8812   4
 -25  26   0 1027.57 86.0341   4
   1  25   0 984.120 84.0136   8
 -25  26   0 674.225 83.6422   8
 -25  26   3 611.787 67.7791   4
 -25  26   3 559.951 67.1856   8
 -25  26   6 81.5110 40.9768   8
   0  26   7 122.593 41.9383   8
 -26  26  -7 73.1451 66.8498   7
  26   0  -4 734.470 77.5126   6
   0  26   4 742.166 82.9929   8
 -26  26  -4 743.815 86.3074   7
 -26  26  -1 94.4169 33.2039   4
  26   0  -1 97.2713 22.0693   6
   0  26   1 104.962 31.3025   8
 -26  26  -1 26.6549 27.7950   8
 -26  26   2 750.182 75.2033   4
 -26   0  -2 667.716 78.1769   4
 -26  26   2 610.249 75.0818   8
 -26  26   5 193.976 42.6607   4
 -26  26   5 100.531 41.6915   8
  26 -26  -8 139.773 40.6061   6
 -26  26   8 167.930 32.0814   5
 -27  26   7-0.42176 38.7079   8
  27 -26  -7-18.8416 40.6325   6
 -27  26   7-26.7786 32.1629   5
 -27  26   4-43.1975 39.5513   4
 -27  26   4 26.8839 37.7575   8
 -27  26   1 241.929 40.0458   8
  -1  27  -1 255.966 38.0910   8
 -27  26   1 284.297 40.9704   4
  26   1  -2 10.0142 21.6695   6
 -27  26  -2-29.9798 36.8691   4
  -1  27   2 4.10940 34.3518   8
  26   1  -5 641.185 69.0388   6
  -1  27   5 495.570 74.3620   8
  26   1  -8 12.1204 30.5331   6
 -27  26  -8 31.0962 48.3658   7
  27 -25  -8-33.8482 34.8326   6
 -27  25   5 65.6056 41.0644   4
 -27  25   5 37.4139 38.8148   8
 -27  25   2 852.211 84.8449   4
 -27  25   2 725.487 84.9283   8
  25   2  -1 287.121 34.9389   6
 -27  25  -1 324.620 41.8153   4
  -2  27   1 312.266 40.4588   8
  25   2  -4 2450.89 230.639   6
  -2  27   4 2063.79 233.087   8
 -27  25  -4 2636.63 235.051   7
  -2  27   7 186.348 46.7759   8
 -27  25  -7 380.898 76.5707   7
 -27  24   6 16.8886 41.4598   8
 -27  24   3 50.1663 35.0488   4
 -27  24   3 49.7319 36.1445   8
 -27  24   0 18.2159 29.4463   4
 -27  24   0 13.6825 23.1029   8
  -3  27   0-5.05866 29.2516   8
  24   3  -3 185.693 29.4625   6
  -3  27   3 115.312 41.4740   8
  -3  27   6 91.5405 43.9160   8
 -27  24  -6 215.578 70.8309   7
  27 -23  -7 364.664 58.0152   6
 -27  23   4 583.911 70.4073   8
 -27  23   1 801.907 79.2650   4
  -4  27  -1 717.821 79.5740   8
 -27  23   1 728.026 79.1558   8
  23   4  -2 899.178 87.8524   6
  -4  27   2 802.716 92.0951   8
 -27  23  -2 870.396 92.0432   4
  -4  27   5 35.0523 43.7712   8
  23   4  -5 15.9147 27.1133   6
 -27  23  -5 29.5645 58.8874   7
  23   4  -8 0.40236 30.2965   6
 -27  23  -8 37.9061 59.4947   7
  27 -22  -8 129.198 42.0160   6
 -27  22   8 114.838 31.3354   5
 -27  22   5 83.8995 43.8737   8
  -5  27  -5 18.9726 32.4817   7
 -27  22   2 27.5885 33.0239   8
  22   5  -1 469.951 46.9966   6
 -27  22  -1 461.564 50.7430   4
  -5  27   1 461.989 50.2678   8
  22   5  -4 722.804 77.2953   6
  -5  27   4 677.069 85.2419   8
 -27  22  -4 855.982 87.2098   7
  22   5  -7 181.539 39.7618   6
  -5  27   7 230.825 50.6306   8
 -27  22  -7 320.441 78.8903   7
 -27  21   9-1.22582 19.9244   5
 -27  21   6 224.745 51.9845   8
  27 -21  -6 179.418 51.3923   6
  -6  27  -6 114.437 37.9711   7
 -27  21   3 240.796 45.0880   8
 -27  21   0 66.9504 25.4640   8
  -6  27   0 96.2418 31.4781   8
  21   6  -3 159.487 28.8695   6
  -6  27   3 162.915 43.7352   8
  -6  27   6 139.062 48.7328   8
 -27  21  -6 339.313 76.5436   7
  27 -20  -7 201.788 53.6113   6
  -7  27  -7 232.968 43.3865   7
 -27  20   7 228.266 41.4201   5
 -27  20   4 980.267 100.649   8
 -27  20   4 875.741 98.3468   4
  27 -20  -1 25.7057 23.2550   6
 -27  20   1 17.2618 31.9008   8
  20   7  -2 152.353 28.0341   6
  -7  27   2 154.662 38.2670   8
  -7  27   5-30.2049 45.8118   8
  -7  27   5-2.69912 17.6706   5
 -27  20  -5-5.27850 60.0209   7
  20   7  -8 1.58659 30.6857   6
  -7  27   8 40.3025 44.5878   8
 -27  20  -8-15.6044 65.1146   7
  27 -19  -8 50.6547 38.5249   6
 -27  19   8 6.83183 26.9770   5
  -8  27  -8-19.2584 34.0219   7
 -27  19   5 9.98357 37.9751   4
 -27  19   5 45.1341 50.0931   8
  27 -19  -5-40.0462 46.4247   6
 -27  19   2 77.9797 37.6111   8
 -27  19   2 43.9756 31.2223   4
  19   8  -1 12.1548 22.8386   6
  -8  27   1 64.2176 29.8185   8
 -27  19  -1-7.77400 24.2784   8
  19   8  -4 208.876 30.5875   6
  -8  27   4 170.850 47.4210   8
  -8  27   4 117.135 23.7776   5
  19   8  -7 58.5495 30.7642   6
  -8  27   7 58.0607 47.5708   8
 -27  19  -7 151.819 75.6260   7
 -27  18   9 20.5057 19.8661   5
  27 -18  -6 266.375 56.9893   6
 -27  18   3 975.305 106.448   4
  27 -18  -3 878.221 106.183   6
 -27  18   0 918.169 88.3353   4
  -9  27   0 792.511 89.8469   8
  18   9  -3 1088.47 107.058   6
  -9  27   3 1018.82 113.621   8
  18   9  -6 714.908 68.9637   6
  -9  27   6 722.291 80.0486   8
  -9  27   6 493.344 64.3412   5
  27 -17  -7 60.6023 48.7081   6
 -27  17   7 74.5847 32.6719   5
  27 -17  -4 1827.92 187.781   6
 -10  27  -4 1780.59 186.667   7
 -27  17   4 2028.04 185.904   4
  27 -17  -1-1.43154 20.0908   6
 -27  17   1 18.0693 27.0759   4
 -10  27   2 69.0938 19.5154   4
  17  10  -2 94.9291 25.6715   6
 -10  27   2 70.4251 37.9622   8
 -27  17  -5 70.7730 67.9789   7
  17  10  -5 39.9672 27.0450   6
 -10  27   5 78.7472 48.0526   8
 -10  27   5 70.4757 22.2309   5
  17  10  -8 42.0504 29.5274   6
 -10  27   8 56.7265 46.9275   8
 -27  17  -8 3.84570 63.5872   7
  27 -16  -8 112.640 41.3537   6
 -27  16   8 90.6263 27.2986   5
 -27  16   5 313.978 43.6079   4
  27 -16  -5 204.036 51.1333   6
 -11  27  -5 191.362 43.3162   7
  27 -16  -2 14.9527 23.7433   6
 -27  16   2 35.5335 28.3123   4
 -27  16  -1 1039.94 104.506   4
 -11  27   1 1080.66 105.812   8
 -11  27   1 1021.55 101.279   4
 -11  27   4 474.511 61.8777   8
 -11  27   4 360.771 45.6598   5
  16  11  -7 48.5538 29.2380   6
 -11  27   7 41.1175 51.5767   8
 -11  27   7 24.5821 21.4607   5
  27 -15  -6 152.740 51.3297   6
 -12  27  -6 160.358 41.1258   7
 -27  15   3 359.731 45.3946   4
  27 -15  -3 305.664 44.4121   6
 -12  27  -3 352.108 49.0714   7
 -27  15   0 71.8142 27.0912   4
 -12  27   0 81.2151 18.7735   4
 -27  15  -6 178.651 88.7268   7
  15  12  -6 74.6146 30.4339   6
 -12  27   6 102.104 51.1838   8
 -12  27   6 68.2355 24.5270   5
  27 -14  -7 38.7947 44.8716   6
 -27  14   7 32.6179 28.0793   5
 -13  27  -7 72.5651 40.3435   7
 -27  14   4 12.6328 31.4434   4
  27 -14  -4-6.39901 32.9885   6
 -13  27  -4 8.96942 34.9926   7
 -13  27  -1 237.411 29.1132   4
  27 -14  -1 186.969 29.2890   6
 -27  14   1 280.350 35.6271   4
  14  13  -2 24.2983 25.8947   6
 -13  27   2 8.35271 20.4331   4
  14  13  -5 267.382 36.9006   6
 -13  27   5 216.658 33.8516   5
  14  13  -8 32.6243 28.5042   6
 -27  14  -8 24.7178 62.9497   7
 -27  13   8 173.555 29.8351   5
 -14  27  -8 181.516 42.0291   7
 -27  13   5 167.719 36.2529   4
  27 -13  -5 174.281 45.8658   6
 -14  27  -5 148.650 42.7844   7
 -27  13   2 396.656 42.7042   4
 -14  27  -2 313.446 39.6545   4
  27 -13  -2 309.150 40.6931   6
 -27  13  -1 1.27281 26.6251   4
 -14  27   1-3.63821 19.5017   4
  13  14  -4 82.9695 27.8496   6
  13  14  -7 178.740 34.2254   6
 -14  27   7 133.651 30.4311   5
  27 -12  -9 7.90510 30.9082   6
  27 -12  -6 210.912 49.1626   6
 -15  27  -6 180.188 47.4983   7
 -15  27  -3 4.26143 27.8969   4
 -27  12   3 20.3423 26.9797   4
  27 -12  -3 42.7192 25.8156   6
 -15  27  -3 46.2573 35.3429   7
 -15  27   0 666.001 69.2214   4
 -27  12   0 726.551 71.9487   4
 -15  27   0 674.545 74.2322   8
 -15  27   3 38.1207 23.8166   4
  12  15  -6 182.275 33.5348   6
 -15  27   6 128.366 30.6823   5
  27 -11  -7 314.607 56.5781   6
 -27  11   7 315.649 40.1211   5
 -16  27  -7 295.061 54.3777   7
  27 -11  -4 3449.89 321.326   6
 -16  27  -4 2948.51 321.966   7
 -27  11   4 3470.61 319.715   4
 -27  11   1 4931.88 424.075   4
  27 -11  -1 3899.21 423.371   6
 -16  27  -1 4635.11 423.692   4
 -16  27   2 1153.19 122.118   4
 -16  27   2 1432.94 126.723   8
  11  16  -5 1147.09 111.121   6
 -16  27   5 991.710 117.618   8
 -27  11  -8 225.890 65.3074   7
 -16  27   8 105.300 26.5664   5
 -16  27   8 112.375 48.9360   8
 -27  10   8 233.186 31.8857   5
 -17  27  -8 253.678 47.3149   7
  10  17   5 243.519 47.4332   8
  27 -10  -5 248.580 43.1965   6
 -17  27  -5 149.582 49.0960   7
 -27  10   2 328.002 39.7835   4
  27 -10  -2 275.543 37.1259   6
 -17  27  -2 329.417 41.2586   4
 -17  27   1 354.487 41.3417   4
 -27  10  -1 329.864 44.4401   4
 -17  27   1 346.626 45.0774   8
 -17  27   4 9.98031 27.6826   4
  10  17  -4 12.2677 27.5645   6
 -17  27   4 20.2649 41.8049   8
  10  17  -7 371.606 45.8416   6
 -17  27   7 306.207 58.3448   8
 -17  27   7 258.440 40.9276   5
  27  -9  -9 79.3051 31.9875   6
 -18  27  -9 97.4437 35.1258   7
  27  -9  -6 64.2802 41.5315   6
 -18  27  -6 36.1836 48.9631   7
 -27   9   6 76.8586 24.6041   5
 -27   9   3 2381.44 225.115   4
  27  -9  -3 2272.83 225.688   6
   9  18   3 2530.93 226.937   8
 -18  27  -3 2085.57 228.151   7
 -18  27   0 325.894 39.1991   4
 -27   9   0 341.869 41.1710   4
 -18  27   0 275.446 43.5709   8
 -18  27   3 27.1167 27.0547   4
 -18  27   3 42.2203 39.4789   8
   9  18  -6 88.4889 32.6118   6
 -18  27   6 75.3008 46.4709   8
 -18  27   6 67.7666 30.0107   5
  18 -27  -9 9.45177 33.9585   6
  27  -8  -7 211.949 48.9284   6
 -27   8   7 213.683 31.1010   5
 -19  27  -7 331.633 55.8070   7
 -27   8   4 125.981 27.0975   4
  27  -8  -4 83.5337 29.5438   6
   8  19   4 91.2007 35.6734   8
 -19  27  -4 72.3246 41.5630   7
 -19  27  -1 202.260 32.8746   4
  27  -8  -1 187.925 27.2072   6
   8  19   1 180.581 33.6755   8
 -27   8   1 190.570 29.8456   4
 -19  27   2 671.184 71.0174   4
 -19  27   2 683.852 75.6364   8
   8  19  -5 958.236 94.3946   6
 -19  27   5 781.189 98.7185   8
 -19  27   8 461.221 59.7860   8
 -19  27   8 357.872 47.2746   5
 -20  27  -8 1.64006 42.9108   7
   7  20   5 167.041 43.8731   8
  27  -7  -5 211.265 38.8174   6
 -20  27  -5 175.306 51.6717   7
 -20  27  -2 49.2415 31.4457   4
  27  -7  -2 53.9424 22.5512   6
 -27   7   2 59.6029 22.6682   4
   7  20   2 50.4492 29.2326   8
 -27   7  -1 50.5710 29.3400   4
 -20  27   1 68.4894 28.3892   8
 -20  27   1 55.8098 25.8918   4
   7  20  -1 70.9466 23.3115   8
 -20  27   4 824.071 88.0663   8
 -20  27   4 770.885 83.5173   4
 -20  27   7 70.5878 43.7882   8
 -20  27   7 53.4296 29.4749   5
  27  -6  -9-2.70553 26.8822   6
   6  21   6 110.825 43.8345   8
  27  -6  -6 117.912 40.7928   6
 -27   6   6 129.972 24.3463   5
 -21  27  -6 68.5498 55.3136   7
  27  -6  -3 269.900 35.5265   6
   6  21   3 203.275 41.7888   8
 -21  27  -3 208.370 43.8916   7
 -27   6   3 259.350 33.1442   4
  27  -6   0 14.9449 15.7910   6
   6  21   0 19.1380 21.2723   8
 -21  27   0 50.8604 28.3334   8
 -21  27   0 14.7196 26.9267   4
 -27   6   0 14.3704 24.0140   4
 -21  27   3 334.488 45.1277   4
 -21  27   3 327.768 50.6100   8
 -21  27   6 91.4076 41.6588   8
 -21  27   6 109.080 31.6481   5
  21 -27  -9 33.0514 31.3785   6
  27  -5  -7 11.1451 37.9710   6
 -22  27  -7 4.79940 53.1410   7
 -27   5   4 32.8254 22.1429   4
  27  -5  -4 62.2660 27.7333   6
   5  22   4 23.8045 36.4585   8
 -22  27  -4 31.5242 41.7284   7
 -22  27  -1 126.551 30.4988   4
  27  -5  -1 80.7684 21.2339   6
   5  22   1 146.521 28.9799   8
 -27   5   1 86.7573 22.5218   4
 -22  27  -1 32.1896 30.2675   8
 -27   5  -2 202.376 43.6027   4
 -22  27   2 258.321 37.8252   4
 -22  27   2 183.764 38.6590   8
 -22  27   5 174.448 44.6575   8
 -22  27   8-2.38403 25.2968   5
 -23  27  -8 52.7398 46.5085   7
  27  -4  -5 149.349 35.3557   6
   4  23   5 122.959 40.7965   8
 -23  27  -5 94.8418 51.6101   7
 -27   4   5 125.501 22.4587   5
 -27   4   2 1723.88 176.141   4
  27  -4  -2 1883.08 177.217   6
   4  23   2 1976.03 179.483   8
 -23  27  -2 1816.90 179.503   4
 -23  27   1 1804.31 172.423   4
 -27   4  -1 1847.22 172.851   4
 -23  27   1 1582.61 172.319   8
   4  23  -1 1825.77 171.591   8
 -23  27   4 318.424 44.8135   4
 -23  27   4 222.364 46.5334   8
 -23  27   7 95.6207 40.2869   8
 -23  27   7 61.8137 31.8732   5
  27  -3  -6 608.860 73.5043   6
   3  24   6 611.655 76.6152   8
 -24  27  -6 726.560 89.1466   7
  27  -3  -3 205.948 36.2302   6
 -24  27  -3 329.737 50.1805   4
   3  24   3 354.558 44.8024   8
 -24  27  -3 248.502 43.8764   7
 -27   3   3 256.935 32.5471   4
  27  -3   0 363.715 39.8746   6
 -27   3   0 285.697 39.7321   4
 -24  27   0 384.161 45.5044   4
   3  24   0 357.573 41.4774   8
 -24  27   0 320.491 44.9042   8
 -24  27   3 8.68304 32.9608   4
 -24  27   3-22.4710 34.5584   8
 -24  27   6 26.2136 39.3812   8
  27  -2  -7-7.58800 34.8231   6
 -25  27  -7 34.6634 58.2178   7
  27  -2  -4 68.4220 28.8189   6
   2  25   4 70.5818 38.2715   8
 -25  27  -4 78.5927 42.1260   7
 -25  27  -1 33.7781 32.0291   4
  27  -2  -1 21.3046 19.3218   6
 -27   2   1 4.45172 18.3792   4
   2  25   1 59.5014 29.0147   8
 -25  27  -1 27.8276 26.5228   8
 -25  27   2 791.770 78.0703   4
 -27   2  -2 650.373 82.5431   4
 -25  27   2 677.600 77.6486   8
 -25  27   5-19.0202 37.9142   4
 -25  27   5-1.31807 38.7074   8
  25 -27  -8-17.6291 35.6782   6
 -25  27   8-5.08849 25.0493   5
 -26  27  -8 84.8547 49.4959   7
   1  26   5 162.836 43.8673   8
  27  -1  -5 195.515 35.9889   6
 -26  27  -5 224.451 59.5750   7
  27  -1  -2 124.169 24.5583   6
 -26  27  -2 88.7289 38.2352   4
   1  26   2 75.3963 36.0746   8
 -26  27   1 66.9500 31.6606   8
   1  26  -1 124.414 27.8842   8
 -26  27   1 104.813 32.7975   4
 -26  27   4 289.085 46.2230   4
 -26  27   4 224.377 45.5200   8
 -26  27   7 369.348 53.5720   8
 -26  27   7 360.618 50.2702   5
  27   0  -6-14.5945 31.3028   6
   0  27   6 0.45103 40.6810   8
 -27  27  -6 17.0437 61.1777   7
  27   0  -3 35.2927 23.6088   6
 -27  27  -3 32.5297 47.0705   4
   0  27   3 42.4995 35.6306   8
 -27  27   0 80.1858 27.7106   8
   0  27   0 118.176 28.4699   8
 -27  27   0 135.180 33.9580   4
 -27  27   3 646.367 67.5393   4
 -27  27   3 498.333 67.1546   8
 -27   0  -3 565.361 84.6296   4
 -27  27   6 159.850 43.1820   8
  28 -27  -8 26.1426 32.5691   6
 -28  27   8 19.8977 23.8708   5
 -28  27   5-23.5706 39.6683   4
 -28  27   5 33.2863 38.3254   8
 -28  27   2 121.257 37.0580   4
 -28  27   2 100.422 36.9221   8
 -28  27  -1 24.7850 33.9623   4
  27   1  -1 8.73248 21.4632   6
  -1  28   1 29.6972 31.8249   8
 -28  27  -1-4.37402 27.1231   8
  27   1  -4 336.970 42.5321   6
  -1  28   4 276.275 50.9084   8
  27   1  -7 48.0425 31.9011   6
  -1  28   7 47.0072 38.2043   8
 -28  27  -7 153.681 58.0831   7
 -28  26   6 538.370 68.4175   8
 -28  26   3 972.036 96.0917   4
 -28  26   3 823.944 96.5381   8
 -28  26   0 95.3414 28.1159   8
  -2  28   0 126.439 31.1588   8
 -28  26   0 178.056 34.6021   4
  26   2  -3 50.2144 24.1649   6
 -28  26  -3 24.1737 46.5800   4
  -2  28   3 61.2273 36.4541   8
  26   2  -6 5.85072 31.3418   6
  -2  28   6 38.3109 39.8761   8
 -28  26  -6 19.5050 64.9146   7
  28 -25  -7 39.5696 40.7059   6
 -28  25   4 222.802 44.4210   4
 -28  25   4 133.667 44.2414   8
 -28  25   1 0.62830 29.9136   8
  -3  28  -1 7.96836 29.2111   8
 -28  25   1 19.5218 29.8742   4
  25   3  -2 92.0772 24.3125   6
 -28  25  -2 113.553 37.0695   4
  -3  28   2 44.3839 36.1901   8
 -28  25  -2 37.5783 28.1034   8
  25   3  -5 108.456 31.0857   6
  -3  28   5 146.266 44.8744   8
 -28  25  -5 175.835 61.0033   7
  25   3  -8 136.686 33.7496   6
  28 -24  -8 31.1567 35.1855   6
 -28  24   5 68.6659 43.5816   8
 -28  24   2 24.7367 34.5779   8
 -28  24   2 1.70671 33.9014   4
  24   4  -1 269.443 32.9707   6
 -28  24  -1 305.009 39.6279   4
  -4  28   1 224.864 38.3353   8
  24   4  -4 18.6479 25.6101   6
  -4  28   4 47.3481 40.5932   8
  -4  28   7 70.3459 43.3996   8
 -28  24  -7 267.109 71.1832   7
  28 -23  -6 94.9895 48.1144   6
 -28  23   6 152.495 48.8324   8
 -28  23   3 1377.12 140.131   8
 -28  23   0-27.3302 25.0743   8
  -5  28   0 7.26444 31.0784   8
  23   5  -3 46.3812 24.0008   6
  -5  28   3 74.8125 40.1684   8
  -5  28   6 170.038 47.0261   8
 -28  23  -6 235.157 72.8311   7
  28 -22  -7-9.23915 41.4425   6
 -28  22   7-45.2685 32.1887   5
 -28  22   4 29.9928 42.8619   8
 -28  22   1 90.3153 35.3305   8
  -6  28  -1 87.0439 32.9664   8
  22   6  -2 155.115 25.4974   6
  -6  28   2 168.066 36.5997   8
  22   6  -5 525.000 59.6707   6
  -6  28   5 481.059 70.1867   8
 -28  22  -5 633.972 83.3564   7
  22   6  -8 19.0510 29.3167   6
 -28  22  -8 36.3918 56.7799   7
  28 -21  -8 21.9790 36.6577   6
 -28  21   8 9.86934 25.7940   5
 -28  21   5 240.787 47.5765   4
 -28  21   5 281.241 58.2282   8
  28 -21  -5 215.008 53.9855   6
 -28  21   2 1265.71 130.325   8
  21   7  -1 267.966 32.9530   6
  -7  28   1 247.066 37.5025   8
  21   7  -4 1632.13 154.959   6
  -7  28   4 1465.96 159.951   8
  21   7  -7 396.152 51.3493   6
  -7  28   7 341.076 61.9935   8
  28 -20  -6 31.0940 47.7508   6
 -28  20   3 93.1662 45.3549   8
 -28  20   3 110.969 35.8289   4
  -8  28   0 181.688 37.6625   8
  20   8  -3 314.773 39.7218   6
  -8  28   3 275.053 53.1968   8
  20   8  -6 196.266 36.3132   6
  -8  28   6 124.263 50.4987   8
  28 -19  -7 30.5609 45.7297   6
 -28  19   7 85.2203 32.5743   5
  28 -19  -4 513.406 67.2939   6
 -28  19   4 626.732 74.8451   8
  -9  28  -4 431.173 63.2976   7
 -28  19   4 557.602 63.8892   4
 -28  19   1 118.943 30.6608   4
  19   9  -2 287.204 36.8011   6
  -9  28   2 230.834 46.7641   8
  -9  28   5 40.4061 47.7961   8
  -9  28   5-1.68946 18.1041   5
 -28  19  -5 83.7296 61.3055   7
  19   9  -8-12.5449 28.2108   6
  -9  28   8 15.5934 44.0037   8
 -28  19  -8 31.7250 60.8348   7
  28 -18  -8 164.229 42.5412   6
 -28  18   8 181.047 31.4866   5
 -28  18   5 321.371 46.4072   4
  28 -18  -5 228.794 52.3451   6
 -10  28  -5 222.777 45.2785   7
  28 -18  -2 138.625 29.9762   6
 -28  18   2 130.339 33.8314   4
 -28  18  -1 22.1002 27.5890   4
 -10  28   1 13.4375 30.3990   8
 -10  28   4 374.003 58.2665   8
 -10  28   4 343.590 39.9378   5
  18  10  -7 302.051 44.7386   6
 -10  28   7 293.545 60.4533   8
 -28  18  -7 452.905 83.4653   7
  28 -17  -6 196.978 51.1922   6
 -11  28  -6 114.298 40.4442   7
 -28  17   3 18.0163 31.9361   4
  28 -17  -3-23.4509 30.6039   6
 -28  17   0 11.7173 26.7892   4
 -11  28   0 49.1927 31.2593   8
  17  11  -3 179.530 31.5530   6
 -11  28   3 205.384 48.2922   8
  17  11  -6-7.44558 28.6599   6
 -11  28   6 52.5265 49.2241   8
 -11  28   6 11.3073 21.6059   5
 -28  17  -6 67.6353 75.1949   7
 -28  16   7 95.2937 30.7345   5
  28 -16  -7 89.5188 46.6552   6
 -12  28  -7 92.1651 39.0866   7
  28 -16  -4 941.939 109.167   6
 -12  28  -4 963.688 108.822   7
 -28  16   4 1205.13 107.962   4
  28 -16  -1 9.88423 19.2525   6
 -28  16   1-1.59456 27.1050   4
  16  12  -2 87.3788 27.5033   6
 -12  28   2 86.7402 21.1497   4
 -12  28   2 84.3955 38.5526   8
 -12  28   5 203.478 55.8346   8
 -12  28   5 133.441 30.0308   5
  16  12  -8 72.5268 29.1277   6
 -12  28   8 33.6740 48.1119   8
 -28  16  -8 77.4346 57.5405   7
  28 -15  -8 26.4895 38.2794   6
 -28  15   8 30.5589 23.5865   5
 -13  28  -8 19.3523 34.6157   7
  28 -15  -5 367.953 57.3377   6
 -13  28  -5 300.709 53.2517   7
 -28  15   5 413.777 50.4414   4
 -13  28  -2 137.872 25.6913   4
  28 -15  -2 167.118 29.9757   6
 -28  15   2 205.170 33.0080   4
 -13  28   1 1079.84 107.116   4
 -28  15  -1 1122.11 109.739   4
 -28  15  -7 136.002 76.5101   7
  15  13  -7 82.9078 29.7699   6
 -13  28   7 32.9297 23.1721   5
 -14  28  -9 59.8732 31.0599   7
  28 -14  -6 179.893 49.7395   6
 -14  28  -6 132.347 42.6067   7
 -28  14   3 2850.34 226.379   4
  28 -14  -3 2561.94 226.780   6
 -14  28  -3 2509.75 228.663   7
 -14  28   0 2028.20 203.019   4
 -28  14   0 2285.58 205.047   4
 -14  28   3 936.574 93.9534   4
  14  14  -6 316.709 41.5450   6
 -14  28   6 235.247 37.5404   5
  28 -13  -7 128.977 47.8587   6
 -28  13   7 180.757 31.6225   5
 -15  28  -7 187.838 43.2910   7
  28 -13  -4 1124.78 120.475   6
 -15  28  -4 1085.16 122.076   7
 -28  13   4 1284.54 118.923   4
 -28  13   1 410.399 44.4762   4
  28 -13  -1 307.846 40.6443   6
 -15  28  -1 402.676 41.6869   4
 -15  28   2 46.7394 22.7090   4
  13  15  -5-4.45153 26.4498   6
 -15  28   5 36.4266 23.0175   5
 -28  13  -8 147.601 57.6145   7
  28 -12  -8 163.997 43.3019   6
 -28  12   8 180.419 28.6737   5
 -16  28  -8 217.028 42.5884   7
 -28  12   5 172.726 33.1315   4
  28 -12  -5 108.464 40.7920   6
 -16  28  -5 79.1191 42.1301   7
 -28  12   2 1400.97 116.951   4
  28 -12  -2 1071.14 115.820   6
 -16  28  -2 1097.10 115.801   4
 -28  12  -1 99.3678 28.2328   4
 -16  28   1 61.9257 23.1346   4
 -16  28   1 65.4252 31.9604   8
  12  16  -4 480.858 54.0844   6
 -16  28   4 394.286 63.9388   8
 -28  12  -7 23.3713 74.2429   7
  12  16  -7 19.7386 30.0603   6
 -16  28   7 21.3145 49.1316   8
 -16  28   7 22.2426 24.5220   5
 -17  28  -9 117.177 33.3750   7
  28 -11  -6 228.152 49.7632   6
 -17  28  -6 207.601 50.4545   7
 -28  11   6 223.539 33.4572   5
 -17  28  -3 14.4824 30.7505   4
  28 -11  -3 8.78967 25.5108   6
 -28  11   3 17.2575 26.1727   4
 -17  28  -3 43.0106 35.8629   7
 -28  11   0 92.3829 28.0951   4
 -17  28   0 56.6796 31.8765   8
 -17  28   3 2588.65 272.624   8
 -17  28   3 2570.83 268.430   4
  11  17  -6 517.208 55.3917   6
 -17  28   6 531.149 67.3770   8
 -17  28   6 369.881 52.8521   5
  17 -28  -9 97.5944 34.3982   6
  28 -10  -7 68.2594 42.8329   6
 -28  10   7 72.6724 23.0094   5
 -18  28  -7 49.4505 44.8109   7
 -28  10   4-3.93764 26.3613   4
  28 -10  -4 3.25725 29.5513   6
 -18  28  -4-16.9979 38.4375   7
 -18  28  -1-14.5617 24.5614   4
  28 -10  -1-5.35688 18.4099   6
 -28  10   1-8.32284 23.3429   4
 -18  28   2 149.197 30.0720   4
 -18  28   2 174.716 40.5526   8
  10  18  -5 149.169 35.8179   6
 -18  28   5 187.661 49.6415   8
 -28  10  -8 61.3333 51.4873   7
 -18  28   8 47.7683 43.9443   8
 -18  28   8 42.8917 23.8120   5
  28  -9  -8 22.6475 36.6372   6
 -28   9   8 16.1422 17.0123   5
 -19  28  -8-22.6943 39.6992   7
   9  19   5 49.2828 41.5248   8
  28  -9  -5 92.0693 35.4334   6
 -19  28  -5 57.9279 44.5720   7
 -19  28  -2 228.725 37.4212   4
  28  -9  -2 213.805 32.3200   6
 -28   9   2 249.044 34.1093   4
 -28   9  -1 68.0813 28.6884   4
 -19  28   1 60.7504 25.5660   4
 -19  28   1 43.3423 27.9021   8
 -19  28   4 387.377 58.7837   8
 -19  28   4 396.346 49.4070   4
 -19  28   7 34.9201 46.0136   8
 -19  28   7 10.3182 25.4724   5
  28  -8  -6 17.3665 38.7488   6
 -28   8   6 32.2918 21.9081   5
 -20  28  -6 11.1942 48.1420   7
 -28   8   3 55.9850 24.6267   4
  28  -8  -3 23.1856 24.6236   6
 -20  28  -3-19.5692 35.9817   4
   8  20   3 33.2901 33.2654   8
 -20  28  -3 10.0935 35.8920   7
 -20  28   0 201.822 36.4846   8
 -20  28   0 198.419 32.5840   4
 -28   8   0 194.664 32.6142   4
 -20  28   3-2.83900 28.2308   4
 -20  28   3 9.09923 40.7614   8
 -20  28   6 200.698 47.9612   8
 -20  28   6 182.716 34.9259   5
  28  -7  -7 184.543 44.5241   6
 -28   7   7 153.783 25.5835   5
 -21  28  -7 201.153 51.5977   7
  28  -7  -4 1660.53 165.502   6
   7  21   4 1659.73 166.691   8
 -28   7   4 1705.45 163.519   4
 -28   7   1 1482.52 137.622   4
  28  -7  -1 1446.46 137.288   6
 -21  28  -1 1506.23 139.639   4
   7  21   1 1658.67 139.769   8
 -21  28   2 971.755 96.6341   4
 -21  28   2 982.572 99.4589   8
 -28   7  -2 878.233 99.3525   4
 -21  28   5 1186.54 124.698   8
 -21  28   8 4.33001 39.2405   8
 -21  28   8 13.5941 23.9536   5
 -22  28  -8 144.136 45.4259   7
  28  -6  -5 606.220 70.6020   6
   6  22   5 638.341 73.7980   8
 -22  28  -5 591.053 78.7343   7
 -22  28  -2 86.5355 34.2745   4
  28  -6  -2 80.5557 23.6318   6
   6  22   2 82.2093 31.6919   8
 -28   6   2 65.5935 22.7356   4
 -28   6  -1 4.20601 29.7074   4
 -22  28   1-6.70472 27.0177   8
 -22  28   1-0.26558 27.6124   4
   6  22  -1 3.71003 23.4203   8
 -22  28   4 98.8163 33.4078   4
 -22  28   4 43.2469 39.7765   8
 -22  28   7 14.5774 40.8293   8
 -22  28   7 29.1998 28.7513   5
  28  -5  -6 437.904 57.1874   6
   5  23   6 413.925 59.0088   8
 -28   5   6 389.641 44.9438   5
 -23  28  -6 533.632 70.8628   7
  28  -5  -3 558.376 59.3744   6
   5  23   3 531.903 63.5090   8
 -23  28  -3 516.249 68.1298   4
 -23  28  -3 484.031 64.4937   7
 -28   5   3 561.201 57.1843   4
   5  23   0-7.10746 23.6916   8
 -23  28   0 23.4074 29.7810   8
 -28   5   0 27.5509 24.8128   4
 -23  28   0 9.57305 28.5841   4
 -23  28   3 215.868 39.4049   4
 -23  28   3 215.469 43.8349   8
 -23  28   6 33.3920 39.9518   8
  28  -4  -7 89.1440 38.2869   6
 -24  28  -7 72.5847 52.9242   7
  28  -4  -4 49.1400 26.7287   6
   4  24   4 15.1827 35.6246   8
 -24  28  -4-21.3445 42.3918   7
 -28   4   1 239.275 31.5461   4
  28  -4  -1 239.608 31.1067   6
 -24  28  -1 241.856 40.2029   4
   4  24   1 281.566 37.4537   8
 -24  28  -1 132.760 36.9836   8
 -24  28   2 2350.55 217.163   4
 -28   4  -2 2404.60 219.846   4
 -24  28   2 1981.85 217.438   8
 -24  28   5 58.0572 41.0874   8
  24 -28  -8 185.838 44.6729   6
 -24  28   8 243.665 35.2295   5
 -25  28  -8 65.8272 46.8168   7
  28  -3  -5 353.822 45.0735   6
   3  25   5 219.557 49.0311   8
 -25  28  -5 329.351 61.5349   7
 -25  28  -2 31.7302 35.6352   4
  28  -3  -2 38.0887 21.5670   6
 -28   3   2 24.0201 19.9016   4
   3  25   2 32.4980 32.5346   8
 -28   3  -1 14.2163 31.7084   4
 -25  28   1 1.58011 28.6873   8
 -25  28   1 31.1038 29.8472   4
   3  25  -1-4.52093 25.1909   8
 -25  28   4 960.851 119.917   8
 -25  28   4 1382.60 120.264   4
 -25  28   7 100.499 38.4807   8
 -25  28   7 69.2609 30.8393   5
  28  -2  -6 38.1529 33.0768   6
   2  26   6 1.74912 38.5575   8
 -26  28  -6-11.5230 57.1044   7
  28  -2  -3-16.8255 23.6400   6
   2  26   3 27.8392 34.9390   8
 -26  28  -3-18.1443 45.2047   4
   2  26   0 46.7945 24.7300   8
 -26  28   0 27.8107 26.2432   8
 -26  28   0 23.0998 31.6052   4
 -28   2  -3 195.052 58.6756   4
 -26  28   3 256.858 42.1829   4
 -26  28   3 203.482 42.2643   8
 -26  28   6 1.29960 39.2596   8
  28  -1  -7 314.345 49.2161   6
 -27  28  -7 405.866 68.2623   7
  28  -1  -4 48.7587 26.7325   6
 -27  28  -4 12.9356 56.5087   4
   1  27   4 4.64114 38.1903   8
 -27  28  -4 45.2558 42.2857   7
 -27  28  -1 169.242 37.6430   4
  28  -1  -1 165.452 26.9950   6
   1  27   1 167.612 34.3481   8
 -27  28  -1 73.2961 32.7369   8
 -27  28   2 252.714 41.6117   4
 -27  28   2 213.464 41.4544   8
   1  27  -2 175.970 35.2787   8
 -27  28   5 26.3860 38.7450   4
 -27  28   5-2.58119 39.1802   8
  27 -28  -8 11.7350 32.6050   6
 -27  28   8 14.2101 23.0892   5
 -28  28  -8 6.37799 50.1647   4
  28   0  -5 326.177 43.6162   6
   0  28   5 272.523 50.2321   8
 -28  28  -5 323.272 62.2366   7
  28   0  -2 94.6475 24.9951   6
 -28  28  -2 128.808 39.6460   4
   0  28   2 83.8687 36.6529   8
 -28  28  -2 29.1315 30.8821   8
 -28  28   1 681.619 69.2749   4
 -28  28   1 553.612 68.5609   8
   0  28  -1 620.430 67.6114   8
 -28  28   4 90.8779 38.8527   4
 -28  28   4 48.2219 39.2248   8
 -28  28   7 83.0131 37.6474   8
  28 -28  -7 98.5870 40.2559   6
 -28  28   7 85.9778 31.1601   5
 -29  28   6 13.4799 39.1738   8
  29 -28  -6-2.27028 41.4607   6
 -29  28   3 104.153 38.2755   4
 -29  28   3 90.5004 38.7962   8
 -29  28   0 71.6868 29.9355   8
  -1  29   0 145.040 30.3706   8
 -29  28   0 148.743 35.8230   4
  28   1  -3 908.286 91.1036   6
  -1  29   3 768.729 95.4353   8
 -29  28  -3 1040.41 102.165   4
  28   1  -6 49.6415 30.0863   6
  -1  29   6 27.2192 38.1814   8
  29 -27  -7 97.4466 39.3729   6
 -29  27   7 69.0465 30.6254   5
 -29  27   4 93.3345 41.0078   4
 -29  27   4 85.5997 41.6443   8
 -29  27   1 2.00587 31.4804   8
  -2  29  -1-29.8867 30.7590   8
 -29  27   1-16.8726 33.2284   4
  27   2  -2 80.6304 24.5083   6
 -29  27  -2 66.9020 38.4855   4
  -2  29   2 64.9055 36.6462   8
 -29  27  -2 40.0839 28.0815   8
  27   2  -5 14.1291 28.2200   6
  -2  29   5-32.5302 39.7366   8
 -29  27  -8-37.5498 53.0354   4
  29 -26  -8 0.41393 31.9494   6
 -29  26   5 115.635 42.5205   4
 -29  26   5 152.067 44.3568   8
 -29  26   2 112.693 38.3166   8
 -29  26   2 158.358 39.2124   4
  26   3  -1 269.270 32.4400   6
 -29  26  -1 224.388 39.2501   4
  -3  29   1 223.146 38.6708   8
  26   3  -4 15.2729 25.9072   6
  -3  29   4 13.9014 39.0231   8
  -3  29   7-14.1365 37.6904   8
 -29  25   6 63.4214 44.9133   8
  29 -25  -6 72.3422 44.2879   6
 -29  25   3 569.343 70.1174   8
 -29  25   0 3.57834 26.6066   8
  -4  29   0 13.0106 29.8308   8
 -29  25   0 41.2908 30.9950   4
  25   4  -3 54.4664 24.9137   6
 -29  25  -3 37.4752 45.6386   4
  -4  29   3 59.1892 38.5861   8
  25   4  -6 67.3621 30.3293   6
  -4  29   6 22.2011 41.2864   8
  29 -24  -7 20.2999 39.5297   6
 -29  24   4 97.6979 45.8952   8
 -29  24   1 1995.57 185.801   8
  -5  29  -1 1789.87 184.779   8
  24   5  -2 352.056 35.8503   6
 -29  24  -2 386.970 44.7740   4
  -5  29   2 347.380 45.8572   8
  24   5  -5 448.312 51.4547   6
  -5  29   5 374.188 62.6219   8
  24   5  -8 73.8935 29.8271   6
  29 -23  -8 166.302 38.8391   6
 -29  23   8 161.620 31.0791   5
 -29  23   5 52.3493 50.5623   8
  29 -23  -5 74.8772 45.3914   6
 -29  23   2 371.850 54.8652   8
  23   6  -1 49.8627 26.5059   6
  -6  29   1 40.6252 30.1956   8
 -29  23  -1-8.21066 24.5013   8
  23   6  -4 9.55551 24.5241   6
  -6  29   4 14.2860 42.3618   8
  23   6  -7 37.1706 30.7335   6
  -6  29   7 49.7568 42.5368   8
  29 -22  -6 445.238 66.4802   6
 -29  22   3 509.078 70.5943   8
  -7  29   0 897.179 77.7387   8
 -29  22   0 549.353 75.4626   8
  22   7  -3 17.5491 23.8883   6
  -7  29   3 19.1404 42.7097   8
  -7  29   6 76.7827 44.3006   8
 -29  22  -6 90.3183 69.7450   7
  29 -21  -7 99.8249 44.8564   6
 -29  21   7 126.972 34.4712   5
 -29  21   4 495.177 67.4737   8
  29 -21  -4 323.135 58.6367   6
 -29  21   4 405.797 55.7305   4
  -8  29  -1 197.099 39.3113   8
  21   8  -2 38.1127 23.8377   6
  -8  29   2 1.24482 37.2024   8
  -8  29   5 58.5865 46.7807   8
  21   8  -8 96.3539 31.4936   6
  -8  29   8 165.549 43.8296   8
  29 -20  -8 55.4378 35.0578   6
 -29  20   8 19.0839 24.6706   5
 -29  20   5 24.5792 38.5251   4
  29 -20  -5 2.49387 45.3265   6
  -9  29  -5 12.1434 34.6585   7
  29 -20  -2 93.0655 30.5535   6
 -29  20   2 73.1797 32.8664   4
  -9  29   1 124.151 33.8938   8
  20   9  -4-7.73051 26.3401   6
  -9  29   4-24.2567 43.8862   8
  20   9  -7-20.9243 29.2050   6
  -9  29   7 0.54014 46.2305   8
 -29  20  -7 18.2215 67.9189   7
  29 -19  -6 27.8507 45.9842   6
 -10  29  -6-15.7831 36.2072   7
 -29  19   3 116.691 34.8154   4
  29 -19  -3 75.3631 35.4043   6
 -29  19   0 69.0736 29.7331   4
 -10  29   0 92.1629 34.1090   8
  19  10  -3 444.446 50.5225   6
 -10  29   3 433.770 64.6917   8
  19  10  -6 26.9844 28.7196   6
 -10  29   6 0.56160 48.4369   8
 -10  29   6-14.5648 18.8594   5
  29 -18  -7 68.6800 42.9788   6
 -11  29  -7-14.0276 35.0401   7
 -29  18   7 9.81913 28.9159   5
  29 -18  -4-20.3592 39.7271   6
 -29  18   4 23.9821 34.9351   4
 -11  29  -4 25.9584 36.8329   7
 -29  18   1 61.9423 28.7561   4
  18  11  -2 61.1173 25.8550   6
 -29  18  -2 78.3980 31.8489   4
 -11  29   2 33.3094 38.7535   8
 -11  29   5 730.425 77.1742   8
 -11  29   5 522.264 58.3098   5
  18  11  -8-51.1662 28.3273   6
 -11  29   8-22.4936 44.4165   8
  29 -17  -8 10.2679 36.2844   6
 -29  17   8 38.6431 23.2082   5
 -12  29  -8 20.1799 33.7918   7
 -29  17   5 288.137 44.1569   4
 -12  29  -5 161.819 44.2483   7
  29 -17  -5 201.732 49.7230   6
 -29  17   2 1091.72 99.0698   4
  29 -17  -2 854.479 97.9006   6
 -29  17  -1 1405.03 139.679   4
 -12  29   1 1426.80 141.211   8
 -12  29   4 961.218 87.5876   8
 -12  29   4 664.889 72.9742   5
  17  12  -7 263.009 40.5597   6
 -12  29   7 277.169 58.9509   8
 -29  17  -7 354.076 73.0512   7
  29 -16  -6 70.0160 46.5058   6
 -13  29  -6 13.4279 37.7625   7
 -29  16   3 253.451 39.0938   4
  29 -16  -3 199.981 38.6461   6
 -29  16   0 249.777 37.8875   4
  16  13  -3 124.440 29.4201   6
  16  13  -6 96.7050 30.5317   6
 -13  29   6 62.6097 52.9719   8
 -13  29   6 97.1348 24.5040   5
 -29  16  -6 165.672 73.9635   7
  29 -15  -7 134.410 45.8174   6
 -29  15   7 138.110 30.1439   5
 -14  29  -7 143.050 41.6249   7
  29 -15  -4 621.328 75.5837   6
 -14  29  -4 594.466 76.3468   7
 -29  15   4 729.899 73.2704   4
 -14  29  -1 160.330 24.0040   4
 -29  15   1 153.318 31.5618   4
  15  14  -2 19.7142 30.5404   6
 -14  29   2 32.9603 20.6825   4
 -29  15  -2 4.74562 29.4605   4
  15  14  -5 3.32799 27.1544   6
 -14  29   5-1.40971 21.5513   5
  29 -14  -8 64.0813 36.2765   6
 -29  14   8 31.1549 21.1209   5
 -15  29  -8 39.5271 36.1683   7
 -29  14   5 12.6774 31.3813   4
  29 -14  -5 46.9726 40.5877   6
 -15  29  -5 40.5389 38.8653   7
 -15  29  -2 112.733 25.9658   4
  29 -14  -2 116.507 26.3995   6
 -29  14   2 129.261 31.0404   4
 -29  14  -1 26.7538 28.0149   4
 -15  29   1 53.0315 21.0015   4
  14  15  -4 964.951 98.7950   6
 -29  14  -7 265.911 69.1400   7
  14  15  -7 211.643 37.1473   6
 -15  29   7 177.649 31.1981   5
  29 -13  -6 751.850 87.8873   6
 -16  29  -6 722.579 84.4289   7
 -16  29  -3 34.7962 26.6150   4
  29 -13  -3 22.5006 26.6944   6
 -29  13   3 41.4958 29.1713   4
 -29  13   0 9.57923 27.1329   4
 -16  29   0 24.7303 20.4288   4
 -16  29   0 9.01222 31.5203   8
 -16  29   3 127.760 27.0185   4
 -16  29   3 80.7479 46.3482   8
 -29  13  -6-7.27880 73.7894   7
  13  16  -6-13.4931 27.6798   6
 -16  29   6 52.2058 49.1730   8
 -16  29   6 9.51275 24.1503   5
  29 -12  -7 37.3811 41.4699   6
 -29  12   7 14.6840 22.6721   5
 -17  29  -7 18.0385 39.9219   7
  29 -12  -4 977.375 109.453   6
 -17  29  -4 970.126 112.775   7
 -29  12   4 1185.26 107.826   4
  29 -12  -1 36.2615 19.8190   6
 -29  12   1 69.6938 26.1261   4
 -17  29  -1 47.9768 23.5983   4
 -17  29   2 25.0930 23.9243   4
 -29  12  -2 29.4739 30.4030   4
 -17  29   2 1.72316 38.7231   8
  12  17  -5 33.3899 30.1747   6
 -17  29   5 14.6409 48.1622   8
 -17  29   8 216.955 47.2330   8
 -17  29   8 120.177 25.2590   5
  29 -11  -8 16.5805 37.4756   6
 -29  11   8 2.92150 17.6075   5
 -18  29  -8-3.31725 37.3998   7
  29 -11  -5 6.98368 36.7001   6
 -18  29  -5-8.21485 40.9113   7
 -18  29  -2 22.5027 26.8003   4
  29 -11  -2 18.6538 22.8771   6
 -29  11   2 8.55953 26.2623   4
 -18  29   1 307.470 39.6179   4
 -29  11  -1 325.244 42.8577   4
 -18  29   1 307.164 44.4739   8
 -18  29   4 246.970 58.0599   8
 -18  29   4 349.287 46.2443   4
 -29  11  -7 108.607 61.0902   7
 -18  29   7 63.3093 47.6138   8
 -18  29   7 53.5619 25.6803   5
  29 -10  -6-7.02754 39.2944   6
 -19  29  -6 54.1994 41.3579   7
 -29  10   6 42.6961 23.7874   5
  29 -10  -3 1457.81 143.987   6
 -19  29  -3 1319.57 145.410   4
 -29  10   3 1568.80 143.698   4
 -19  29   0 1744.39 165.988   4
 -29  10   0 1816.61 166.799   4
 -19  29   0 1493.02 168.468   8
 -19  29   3 1331.70 134.813   8
 -19  29   3 1286.65 129.057   4
 -19  29   6-28.8155 46.4729   8
 -19  29   6 22.7918 25.9967   5
  29  -9  -7 323.398 50.7909   6
 -29   9   7 265.953 34.5668   5
 -20  29  -7 287.923 52.4756   7
  29  -9  -4 501.385 58.6979   6
 -20  29  -4 442.544 65.7157   7
 -29   9   4 503.278 55.1559   4
  29  -9  -1 180.920 27.9909   6
 -29   9   1 224.564 32.2002   4
 -20  29  -1 133.508 38.7844   8
 -20  29  -1 241.240 34.3829   4
 -29   9  -2 52.9476 34.2334   4
 -20  29   2 7.99511 26.8333   4
 -20  29   2 20.1650 35.4351   8
 -20  29   5 358.793 59.6656   8
 -20  29   8 48.5170 41.1515   8
 -20  29   8 37.7588 22.4042   5
  29  -8  -8 53.1794 37.4625   6
 -21  29  -8 147.177 42.9973   7
  29  -8  -5 227.441 42.3654   6
   8  21   5 189.136 46.9928   8
 -21  29  -5 247.479 50.6616   7
 -29   8   2 550.094 59.0598   4
  29  -8  -2 563.764 58.6981   6
 -21  29  -2 521.387 62.5776   4
 -29   8  -1 9.93893 31.4385   4
 -21  29   1-0.51473 26.7654   4
 -21  29   1-13.6312 28.3753   8
 -21  29   4 39.5346 31.4434   4
 -21  29   4 20.4393 42.1956   8
 -21  29   7 147.540 44.2994   8
 -21  29   7 93.9618 28.4758   5
 -29   7   6 349.526 42.3514   5
  29  -7  -6 411.896 56.5551   6
 -22  29  -6 430.522 62.1069   7
 -29   7   3 102.138 25.3386   4
  29  -7  -3 85.5970 27.7400   6
 -22  29  -3 80.0510 40.1009   4
   7  22   3 70.2296 35.2778   8
   7  22   0 18.6822 26.5884   8
 -22  29   0 10.1675 31.1847   8
 -22  29   0 59.6435 27.2775   4
 -29   7   0 27.8368 26.8186   4
 -22  29   3 2152.10 221.072   8
 -22  29   3 2306.69 218.474   4
 -22  29   6 127.625 43.1956   8
 -22  29   6 91.2395 31.8072   5
  29  -6  -7 19.6716 37.3211   6
 -23  29  -7 25.2280 47.7652   7
  29  -6  -4 31.2284 28.5657   6
   6  23   4 22.0274 35.7890   8
 -23  29  -4 16.9173 44.4453   7
 -23  29  -1-7.76866 31.1036   4
  29  -6  -1-1.70756 19.1150   6
   6  23   1 10.5867 29.2077   8
 -29   6   1 15.5213 23.1455   4
 -23  29  -1 12.5635 31.0515   8
 -23  29   2-5.35811 30.5559   4
 -23  29   2 19.1094 32.9551   8
 -29   6  -2 67.0866 41.0043   4
   6  23  -2 24.1443 23.0566   8
 -23  29   5 10.0604 41.6468   8
 -23  29   8-11.1159 23.6771   5
  29  -5  -8 89.3648 33.0868   6
 -24  29  -8 49.0212 40.3872   4
 -24  29  -8 134.687 45.4817   7
  29  -5  -5 0.43390 32.4321   6
   5  24   5 5.09630 38.8476   8
 -24  29  -5 18.3331 48.7627   7
 -29   5   5 15.0814 17.5720   5
 -24  29  -2-0.33929 34.1165   4
  29  -5  -2 26.6781 21.0251   6
 -29   5   2 22.6828 21.3811   4
   5  24   2 8.70572 30.6247   8
 -29   5  -1-12.1216 34.1013   4
 -24  29   1-30.8637 29.3173   8
 -24  29   1 23.3008 30.2349   4
   5  24  -1 13.4472 24.4553   8
 -24  29   4 177.636 38.0784   4
 -24  29   4 142.743 43.0923   8
 -24  29   7 132.399 40.7832   8
 -24  29   7 108.363 30.8384   5
  29  -4  -6 163.983 39.8276   6
   4  25   6 144.183 43.0380   8
 -25  29  -6 197.118 56.9811   7
 -29   4   3 138.486 24.6326   4
  29  -4  -3 146.376 28.5082   6
 -25  29  -3 164.273 46.6200   4
   4  25   3 61.3886 36.5487   8
   4  25   0 22.8610 24.6006   8
 -25  29   0 36.6740 28.1060   8
 -29   4   0 7.25246 23.9961   4
 -25  29   0 66.1104 31.1505   4
 -25  29   3 44.3790 34.3699   4
 -29   4  -3 58.7042 48.7187   4
 -25  29   3 11.4019 36.1636   8
 -25  29   6 4.34721 38.8709   8
  29  -3  -7 18.4999 32.9835   6
 -26  29  -7 21.7844 54.0518   7
  29  -3  -4 1789.07 169.526   6
   3  26   4 1598.21 171.599   8
 -26  29  -4 1721.47 177.161   4
 -26  29  -4 1781.14 174.288   7
 -26  29  -1 268.865 40.2241   4
  29  -3  -1 206.554 29.2301   6
   3  26   1 242.875 37.4938   8
 -26  29   2 510.929 53.9295   4
 -29   3  -2 474.859 64.3061   4
   3  26  -2 368.902 48.3237   8
 -26  29   2 352.691 54.1631   8
 -26  29   5 235.090 47.2183   8
  26 -29  -8 57.4712 34.0064   6
 -26  29   8 5.80703 22.1066   5
  29  -2  -5 67.7884 31.3316   6
   2  27   5 82.1941 37.9882   8
 -27  29  -5 126.126 54.6212   7
 -27  29  -2 7.14654 38.3877   4
  29  -2  -2 38.1785 22.7480   6
   2  27   2 29.4579 33.8811   8
 -27  29  -2 18.1754 32.8231   8
 -27  29   1 645.514 68.9277   4
 -27  29   1 488.251 68.6927   8
   2  27  -1 681.890 66.7980   8
 -27  29   4 131.157 39.9051   4
 -27  29   4 142.840 41.6463   8
 -27  29   7 42.6721 35.4029   8
  27 -29  -7 65.2058 39.5338   6
 -27  29   7 59.5759 29.5139   5
  29  -1  -6 158.231 35.6053   6
   1  28   6 99.1384 41.0442   8
 -28  29  -6 194.205 61.0207   7
  29  -1  -3 15.6869 23.9288   6
 -28  29  -3 18.0014 46.6536   4
   1  28   3-11.1074 36.7475   8
   1  28   0 286.414 38.1065   8
 -28  29   0 372.478 43.2375   4
 -28  29   3 334.409 55.2325   8
 -28  29   3 478.902 56.1935   4
 -28  29   6 19.9661 37.6663   8
  29   0  -7 31.3259 30.6041   6
 -29  29  -7 26.7393 64.8578   4
  29   0  -4-20.6047 26.4097   6
 -29  29  -4 48.1001 58.9512   4
   0  29   4 0.42220 37.8685   8
 -29  29  -1 130.203 36.8780   4
  29   0  -1 126.028 27.9870   6
   0  29   1 83.0609 32.2452   8
 -29  29  -1 31.2089 29.5636   8
 -29  29   2 177.024 38.3872   4
 -29  29   2 102.040 39.8257   8
   0  29  -2 127.285 32.1529   8
 -29  29   5 327.573 55.1988   8
 -29  29   5 484.095 57.1493   4
  29 -29  -8 200.007 37.2191   6
 -29  29   8 202.305 30.4388   5
  30 -29  -7 19.4462 33.8871   6
 -30  29   7 26.5675 26.7861   5
 -30  29   4 22.6813 38.6367   4
 -30  29   4 31.3025 39.8359   8
 -30  29   1 66.0369 33.9692   8
 -30  29   1 161.835 36.4409   4
  -1  30  -1 86.1586 31.3674   8
  29   1  -2 100.666 25.4391   6
  -1  30   2 123.716 38.3394   8
  29   1  -5 19.4763 27.3459   6
 -30  29  -5 8.33660 69.9908   4
  -1  30   5 0.79878 35.8837   8
 -30  28   8 35.0344 21.0850   5
 -30  28   5 41.3764 39.9495   8
 -30  28   2 104.281 38.4796   4
 -30  28   2 116.108 38.1329   8
  -2  30  -2 140.849 33.5600   8
 -30  28  -1 116.865 36.8687   4
  -2  30   1 103.195 33.7191   8
 -30  28  -1 36.0198 27.2493   8
  28   2  -4 19.7407 25.8959   6
 -30  28  -4 17.5410 61.2366   4
  -2  30   4 13.0345 38.0723   8
  28   2  -7 33.1477 29.8850   6
  -2  30   7 12.0908 34.1684   8
 -30  28  -7 3.21169 67.9200   4
 -30  27   6 229.384 47.2274   8
  30 -27  -6 200.065 48.4167   6
 -30  27   3 49.6863 38.3782   4
 -30  27   3 73.1622 41.0108   8
 -30  27   0 834.395 71.4344   4
  -3  30   0 700.882 68.2828   8
  27   3  -3 775.170 72.1789   6
  -3  30   3 499.951 77.5052   8
 -30  27  -3 683.808 83.4222   4
  27   3  -6 40.1131 29.5701   6
  -3  30   6 4.76209 38.4111   8
  30 -26  -7 54.1442 38.2907   6
 -30  26   4 2.81449 43.5204   8
 -30  26   1 33.1988 34.5737   8
  -4  30  -1 25.9962 32.2619   8
 -30  26   1 30.8475 31.8277   4
  26   4  -2 268.252 30.8449   6
 -30  26  -2 219.338 42.3603   4
  -4  30   2 167.003 41.5569   8
  26   4  -5 75.3767 27.8635   6
  -4  30   5 40.8729 42.2194   8
  26   4  -8-4.40110 26.3474   6
 -30  26  -8-34.8616 51.4999   4
  30 -25  -8 59.7030 30.6404   6
 -30  25   8 66.4840 24.2189   5
  30 -25  -5 1422.04 168.282   6
 -30  25   5 1872.73 168.963   8
 -30  25   2 61.5297 40.4936   8
 -30  25  -1-28.9657 33.9723   4
  -5  30   1-0.36200 31.7227   8
 -30  25  -1 0.97343 24.0072   8
  25   5  -4 39.3600 25.8696   6
  -5  30   4 53.9346 41.3053   8
  -5  30   7 11.6815 38.1966   8
  30 -24  -6 10.6725 44.3656   6
 -30  24   3 391.034 62.5599   8
 -30  24   0 82.1095 33.6819   8
  -6  30   0 63.2515 33.2597   8
  24   6  -3 421.233 47.7866   6
 -30  24  -3 375.131 61.4070   4
  -6  30   3 382.615 58.8114   8
  -6  30   6 88.7151 43.4006   8
  30 -23  -7 14.5871 40.0848   6
 -30  23   7 14.8650 30.8736   5
 -30  23   4 59.8520 39.0558   4
 -30  23   4 63.0965 51.5612   8
  30 -23  -4 60.8463 44.5557   6
  -7  30  -1-0.36771 32.0988   8
  23   7  -2 177.518 30.7832   6
  -7  30   2 157.474 42.0616   8
  23   7  -5 23.0196 27.0171   6
  -7  30   5-45.0042 46.3396   8
  23   7  -8 28.6573 27.7274   6
  30 -22  -8 87.9096 34.2852   6
 -30  22   8 136.991 27.8923   5
 -30  22   5 113.551 41.2975   4
  30 -22  -5 59.7302 46.6764   6
  30 -22  -2-20.8353 32.3823   6
 -30  22   2 4.75757 33.0785   4
  -8  30   1 59.2866 32.3106   8
  22   8  -4 64.1755 26.4982   6
  -8  30   4 80.3761 44.8055   8
  22   8  -7 69.7980 30.1168   6
  -8  30   7 60.9650 45.2604   8
  30 -21  -6 132.676 47.0567   6
 -30  21   3 182.976 40.2151   4
  30 -21  -3 162.420 41.2526   6
 -30  21   0-9.59324 29.0415   4
  -9  30   0 19.5528 35.2154   8
  21   9  -3 189.507 31.2721   6
  -9  30   3 103.077 48.2211   8
  -9  30   6 255.206 53.2587   8
  30 -20  -7 72.4832 41.5331   6
 -30  20   7 90.0756 31.4434   5
 -30  20   4 152.934 40.9055   4
  30 -20  -4 130.139 43.9247   6
 -30  20   1 1934.18 170.852   4
 -10  30  -1 1503.64 172.090   8
  20  10  -2 717.163 72.3238   6
 -30  20  -2 628.900 74.2660   4
 -10  30   2 644.828 77.8839   8
 -10  30   5 149.372 52.7205   8
  20  10  -8 64.4325 29.0780   6
 -10  30   8 50.0124 41.3495   8
  30 -19  -8 165.962 38.1333   6
 -30  19   8 149.534 28.4181   5
 -30  19   5 141.482 39.9651   4
  30 -19  -5 110.135 45.8276   6
 -11  30  -5 87.9623 40.0544   7
  30 -19  -2 126.265 32.5481   6
 -30  19   2 167.631 35.4015   4
 -30  19  -1 184.057 34.4168   4
 -11  30   1 165.709 37.7525   8
 -11  30   4 44.0854 47.3791   8
  19  11  -7 39.0547 28.4159   6
 -11  30   7 50.2363 48.1555   8
  30 -18  -6 626.680 77.9153   6
 -12  30  -6 594.260 72.0628   7
 -30  18   3 576.121 61.0948   4
  30 -18  -3 437.297 61.1997   6
 -30  18   0 531.100 59.6820   4
 -12  30   0 526.821 64.4583   8
  18  12  -3 18.5568 25.6806   6
 -12  30   3 52.0919 45.9185   8
  18  12  -6 68.0910 28.8518   6
 -12  30   6 71.3222 20.8340   5
 -12  30   6 19.5556 51.3354   8
  30 -17  -7 8.81121 39.2088   6
 -13  30  -7 50.7794 35.2220   7
 -30  17   7 12.2095 27.0763   5
 -30  17   4 163.266 37.6729   4
  30 -17  -4 97.4658 40.4921   6
 -13  30  -1 167.163 42.1175   8
 -30  17   1 243.230 35.7832   4
  17  13  -2 458.939 52.4879   6
 -30  17  -2 385.605 52.0403   4
 -13  30   2 407.873 59.5584   8
 -13  30   2 405.613 44.8707   4
  17  13  -5 20.2554 27.0712   6
 -13  30   5 2.34349 49.9723   8
 -13  30   5 25.1229 19.9032   5
 -13  30   8 144.380 47.1278   8
  30 -16  -8 9.22396 34.2815   6
 -30  16   8 19.2318 20.7942   5
 -14  30  -8-45.0797 34.4704   7
 -30  16   5 232.552 39.8174   4
  30 -16  -5 148.228 47.8741   6
 -14  30  -5 177.166 43.5965   7
  30 -16  -2 25.3644 25.2488   6
 -30  16   2 60.5596 29.8778   4
 -30  16  -1 4.50023 28.4644   4
 -14  30   1-9.02817 18.8191   4
  16  14  -7 45.9798 28.6245   6
 -14  30   7-6.63234 19.6994   5
  30 -15  -6 25.1240 41.6256   6
 -15  30  -6 55.7519 40.0183   7
 -30  15   3 119.566 32.0357   4
  30 -15  -3 32.0024 29.5489   6
 -30  15   0 130.060 30.4490   4
 -15  30   0 79.2295 21.6651   4
  15  15  -6 65.2989 29.2475   6
 -15  30   6 26.8898 22.2105   5
  30 -14  -7 6.00561 40.3174   6
 -30  14   7 17.8876 24.4183   5
 -16  30  -7-15.5068 37.7104   7
 -30  14   4 17.0100 31.2401   4
 -16  30  -4-8.82547 27.5411   4
  30 -14  -4 46.3391 34.1654   6
 -16  30  -4 13.8345 40.3195   7
 -16  30  -1 7.56058 20.7951   4
 -30  14   1 8.70371 26.2358   4
 -16  30   2 123.465 26.5196   4
 -30  14  -2 110.966 34.2223   4
  14  16  -5 952.454 79.8727   6
 -16  30   5 606.021 75.7271   5
  30 -13  -8 93.8790 38.6163   6
 -30  13   8 121.291 22.7719   5
 -17  30  -8 154.298 37.8197   7
  30 -13  -5 37.3575 37.2787   6
 -17  30  -5-14.3732 42.3906   7
 -30  13   2 3554.16 296.470   4
  30 -13  -2 2979.11 295.606   6
 -17  30  -2 2836.66 295.123   4
 -17  30   1 1060.66 104.834   4
 -30  13  -1 996.669 107.053   4
 -17  30   1 1125.46 108.548   8
  13  17  -4 950.709 91.4224   6
 -17  30   4 701.071 96.3908   8
 -17  30   7 69.3708 48.1113   8
  30 -12  -6 36.4801 39.7692   6
 -18  30  -6 15.9371 42.0193   7
 -30  12   6 28.9383 23.7499   5
 -30  12   3 496.287 49.4430   4
  30 -12  -3 393.205 49.3596   6
 -18  30  -3 318.469 48.8349   4
 -18  30   0 163.377 28.1710   4
 -18  30   0 201.546 39.0986   8
 -30  12   0 138.578 32.6111   4
 -18  30   3 66.0384 26.9611   4
 -18  30   3 115.237 45.9320   8
 -18  30   6 52.8421 49.5182   8
 -18  30   6 26.1424 24.9105   5
  30 -11  -7 42.6989 40.3233   6
 -30  11   7 41.9347 21.2046   5
 -19  30  -7 57.8772 42.5827   7
  30 -11  -4 1673.73 152.543   6
 -19  30  -4 1194.59 151.355   4
 -19  30  -4 1520.24 155.522   7
 -30  11   4 1709.42 150.351   4
 -30  11   1 401.961 41.8706   4
  30 -11  -1 287.241 37.4533   6
 -19  30  -1 358.394 41.6036   4
 -19  30  -1 217.168 47.6372   8
 -30  11  -2 15.3866 33.9132   4
 -19  30   2 46.5121 25.8311   4
 -19  30   2 61.3378 38.2175   8
 -19  30   5-3.29993 46.7478   8
 -19  30   8 25.1464 40.1480   8
 -19  30   8 50.1029 20.6241   5
  30 -10  -8 55.4088 34.3173   6
 -20  30  -8 71.7698 38.7268   7
  30 -10  -5 186.798 41.9756   6
 -20  30  -5 163.421 50.0194   7
 -20  30  -2 21.2380 29.0924   4
  30 -10  -2-12.9735 23.6192   6
 -30  10   2 1.77533 26.5279   4
 -30  10  -1 237.477 39.4736   4
 -20  30   1 224.408 34.9580   4
 -20  30   1 201.260 38.4794   8
 -20  30   4 881.815 104.008   8
 -20  30   4 980.523 97.2795   4
 -20  30   7 213.998 48.6135   8
 -20  30   7 140.587 29.5709   5
  30  -9  -6 299.083 50.9454   6
 -30   9   6 304.482 37.8904   5
 -21  30  -6 278.040 55.0031   7
 -21  30  -3-2.30246 34.8315   4
 -30   9   3 22.9296 25.5295   4
  30  -9  -3-18.6247 26.6669   6
 -21  30   0-13.1027 31.8638   8
 -21  30   0 0.98589 25.8474   4
 -30   9   0-16.2111 28.7292   4
 -21  30   3 48.3606 30.6581   4
 -21  30   3 13.9124 41.3033   8
 -21  30   6 204.963 47.4034   8
 -21  30   6 156.129 33.3559   5
  30  -8  -7 26.4516 36.9080   6
 -22  30  -7 83.0278 46.9880   7
 -30   8   4 213.796 33.2092   4
  30  -8  -4 238.179 38.1623   6
 -22  30  -4 200.869 48.0666   4
 -22  30  -4 169.786 49.4109   7
  30  -8  -1 19.1262 19.5523   6
 -30   8   1 10.3655 24.5841   4
 -22  30  -1-1.82049 31.6131   8
 -22  30  -1 10.7345 29.5656   4
 -30   8  -2 164.428 41.1281   4
 -22  30   2 87.5912 30.9323   4
 -22  30   2 79.4553 36.2798   8
 -22  30   5 127.631 46.4404   8
 -22  30   8 28.4098 21.1395   5
  30  -7  -8 13.8632 31.3968   6
 -23  30  -8 45.0832 39.6059   7
  30  -7  -5 1.85035 33.8249   6
   7  23   5 33.8886 38.9412   8
 -23  30  -5-14.4390 49.4885   7
 -23  30  -2 79.7227 34.5114   4
  30  -7  -2 50.4268 23.3447   6
 -30   7   2 24.7834 23.6888   4
   7  23   2 32.4631 32.9611   8
 -30   7  -1 281.127 42.7782   4
 -23  30   1 266.494 37.6801   4
 -23  30   1 175.894 38.6917   8
   7  23  -1 216.397 31.9644   8
 -23  30   4 373.288 58.6202   8
 -23  30   4 407.465 51.8342   4
 -23  30   7 106.173 40.5276   8
 -23  30   7 60.9670 27.2304   5
  30  -6  -6 518.913 67.7835   6
 -24  30  -6 636.181 78.7961   7
  30  -6  -3 1827.47 169.555   6
 -24  30  -3 1682.51 172.243   4
   6  24   3 1638.89 171.160   8
 -30   6   3 1727.95 167.468   4
 -24  30   0 442.457 49.0588   4
 -30   6   0 404.992 47.6559   4
   6  24   0 456.345 47.9062   8
 -24  30   3 2630.48 264.494   8
 -30   6  -3 2400.31 264.334   4
 -24  30   3 3033.68 263.106   4
 -24  30   6 219.921 45.6892   8
 -24  30   6 201.151 36.6602   5
  30  -5  -7 98.5305 36.3490   6
 -25  30  -7-8.85809 49.2721   4
 -25  30  -7 57.6714 51.3056   7
  30  -5  -4 396.845 51.5517   6
 -25  30  -4 365.582 66.1158   4
   5  25   4 456.750 56.4247   8
 -25  30  -4 438.883 63.1965   7
  30  -5  -1 128.174 24.8290   6
 -30   5   1 119.079 27.1981   4
   5  25   1 131.492 33.1854   8
 -25  30  -1 46.8649 33.6687   8
 -25  30  -1 164.260 35.3813   4
 -30   5  -2 43.9784 46.9230   4
 -25  30   2 38.7243 31.8513   4
 -25  30   2 26.6668 34.8192   8
   5  25  -2 45.8030 23.9896   8
 -25  30   5 83.1840 41.4598   8
  25 -30  -8 45.8199 34.2790   6
 -25  30   8 63.3236 22.7376   5
  30  -4  -8 56.1362 28.3622   6
  30  -4  -5 378.353 49.4482   6
   4  26   5 323.231 53.8721   8
 -26  30  -5 307.907 69.9528   4
 -26  30  -5 476.597 66.3577   7
 -26  30  -2 33.4277 37.3141   4
  30  -4  -2 24.5921 22.2024   6
   4  26   2 26.8691 32.7558   8
 -26  30  -2 14.6153 35.0302   8
 -26  30   1 100.514 33.0187   8
 -26  30   1 50.5949 32.2500   4
   4  26  -1 68.2651 25.3114   8
 -30   4  -1 41.9058 35.6269   4
 -26  30   4 46.6517 35.0989   4
 -26  30   4 12.0775 38.0518   8
 -26  30   7 21.0041 34.6469   8
 -26  30   7 9.40450 26.1332   5
   3  27   6 110.517 39.9214   8
  30  -3  -6 142.874 36.1961   6
 -27  30  -6 163.896 62.4387   4
 -27  30  -6 202.333 60.1518   7
  30  -3  -3 71.2333 25.8557   6
 -27  30  -3 19.9555 44.6096   4
   3  27   3 21.7491 35.2453   8
   3  27   0 56.3400 27.5903   8
 -27  30   0 7.79958 27.3212   8
 -27  30   0 68.7875 32.5984   4
 -30   3  -3 1323.51 149.190   4
 -27  30   3 1176.09 140.847   8
 -27  30   6 363.682 53.2314   8
  30  -2  -7 15.6318 30.4376   6
 -28  30  -7 20.0826 57.1060   4
  30  -2  -4 113.676 29.1002   6
 -28  30  -4 115.184 58.9392   4
   2  28   4 91.1682 38.7589   8
  30  -2  -1 85.4350 25.8128   6
   2  28   1 65.0454 32.1291   8
 -28  30  -1 118.453 36.8098   4
 -28  30   2 90.8889 36.9687   4
 -28  30   2 59.7575 37.2055   8
   2  28  -2 47.5793 27.6679   8
 -28  30   5 107.660 38.8478   8
  28 -30  -8 18.4684 29.0237   6
  30  -1  -5-13.9410 28.4546   6
 -29  30  -5 60.1669 65.4544   4
   1  29   5 10.4974 35.2522   8
 -29  30  -2 249.457 44.8369   4
  30  -1  -2 217.108 29.2402   6
   1  29   2 170.151 38.9595   8
 -29  30   1 18.4665 32.1792   8
 -29  30   1 14.3974 34.7631   4
   1  29  -1 11.4680 26.5738   8
 -29  30   4 16.3670 37.1798   4
 -29  30   4 54.9215 38.3463   8
  29 -30  -7 114.462 37.8004   6
 -29  30   7 112.020 29.4388   5
  30   0  -6 81.4539 30.1974   6
 -30  30  -6 50.4064 71.4239   4
   0  30   6 19.4016 34.6058   8
  30   0  -3-3.72048 24.7844   6
 -30  30  -3-24.6045 49.2480   4
   0  30   3-7.96607 36.8827   8
 -30  30  -3-26.9104 33.3625   8
 -30  30   0-6.83818 28.7237   8
   0  30   0 24.0854 28.8756   8
 -30  30   0-5.45054 34.0819   4
 -30  30   3 141.983 40.4524   4
 -30  30   3 122.809 40.1584   8
   0  30  -3 70.0492 30.5728   8
 -30  30   6 8.72553 35.4969   8
  30 -30  -6 14.2714 39.7734   6
 -31  30   5 12.0384 36.5643   4
 -31  30   5 30.7271 37.4461   8
 -31  30   2 1708.81 143.723   4
 -31  30   2 1320.15 142.675   8
  -1  31  -2 1296.25 140.821   8
 -31  30  -1 622.622 52.3829   4
  -1  31   1 471.749 48.2780   8
  30   1  -4 298.174 37.5060   6
 -31  30  -4 234.379 65.3207   4
  -1  31   4 190.892 46.0048   8
  30   1  -7 139.137 31.9435   6
 -31  30  -7 112.880 60.8843   4
 -31  29   6 97.3558 39.4551   8
  31 -29  -6 99.2512 41.6926   6
 -31  29   3 1545.80 135.800   8
 -31  29   3 1819.96 135.491   4
 -31  29   0 2.87221 30.6113   8
  -2  31   0 49.0046 29.0128   8
 -31  29   0 52.0589 34.3566   4
  29   2  -3 185.847 29.5595   6
 -31  29  -3 209.296 51.7143   4
  -2  31   3 145.474 40.7084   8
  29   2  -6 66.8302 29.2270   6
  -2  31   6 82.2870 37.1653   8
  31 -28  -7 181.145 38.9105   6
 -31  28   7 131.745 32.2907   5
 -31  28   4 635.031 87.3747   8
 -31  28   4 900.851 86.5028   4
 -31  28   1 631.634 62.5613   4
  -3  31  -1 517.045 61.6246   8
 -31  28  -2-29.4726 40.0950   4
  28   3  -2 53.2633 24.7433   6
  -3  31   2 43.9274 38.3601   8
 -31  28  -2-14.8302 27.3576   8
  28   3  -5 164.742 31.9600   6
 -31  28  -5 134.494 73.8056   4
  -3  31   5 97.6484 41.5589   8
 -31  27   5 112.557 46.1966   8
  31 -27  -5 53.0025 45.1605   6
 -31  27   2 247.150 47.4898   8
 -31  27   2 320.924 44.9278   4
  -4  31  -2 206.091 41.9283   8
 -31  27  -1 93.0263 36.4082   4
  -4  31   1 99.1343 36.1592   8
 -31  27  -1 13.9019 24.9488   8
  27   4  -4 927.076 90.7082   6
  -4  31   4 761.996 96.4728   8
 -31  27  -4 939.672 108.253   4
  -4  31   7 235.691 41.7360   8
 -31  27  -7 86.6578 70.3674   4
  31 -26  -6 107.246 43.5933   6
 -31  26   3 101.357 46.1588   8
  31 -26  -3 72.6049 43.0508   6
 -31  26   0-11.1761 30.9230   8
  -5  31   0-1.34594 30.0170   8
 -31  26   0 26.8683 33.0750   4
  26   5  -3-7.68855 24.5061   6
 -31  26  -3-2.35058 46.5640   4
  -5  31   3-11.5365 39.0596   8
 -31  26  -3 8.34752 24.0142   8
  26   5  -6 68.7514 29.8955   6
  -5  31   6 54.5794 40.1264   8
  31 -25  -7 82.7479 38.6816   6
 -31  25   7 63.4931 28.8088   5
 -31  25   4 4.52684 48.0131   8
  31 -25  -4 52.1918 43.2775   6
  -6  31  -1 38.6268 33.3959   8
  25   6  -2 151.480 26.8970   6
 -31  25  -2 122.481 38.4432   4
  -6  31   2 89.7351 40.6838   8
  25   6  -5 199.190 34.0804   6
  -6  31   5 141.283 47.8827   8
  25   6  -8 22.1734 25.8778   6
 -31  25  -8-0.85413 45.9896   4
  31 -24  -8-23.4588 28.4817   6
 -31  24   8 17.1834 22.0340   5
 -31  24   5 45.0674 39.9510   4
  31 -24  -5 87.7012 46.5023   6
  31 -24  -2 14.9143 33.4941   6
  -7  31   1 29.5204 33.6756   8
  24   7  -4 128.948 29.1823   6
  -7  31   4 84.3435 45.9187   8
  24   7  -7 37.3300 28.2784   6
  -7  31   7 58.3850 40.3163   8
  31 -23  -6 128.737 44.5362   6
 -31  23   3 68.8993 36.3473   4
  31 -23  -3 25.3210 38.8380   6
  -8  31   0 1066.72 109.659   8
  23   8  -3 415.084 46.8871   6
  -8  31   3 308.361 58.6917   8
  -8  31   6 224.435 48.8334   8
  31 -22  -7 214.141 46.1079   6
 -31  22   7 251.470 39.5639   5
 -31  22   4 46.7412 39.0787   4
  31 -22  -4 24.9236 42.6984   6
  -9  31  -1 42.6009 34.4420   8
 -31  22   1 37.3178 30.6421   4
  22   9  -2 265.610 37.8894   6
  -9  31   2 226.595 47.4449   8
  -9  31   5 124.063 49.5878   8
  22   9  -8 8.45671 27.3400   6
  31 -21  -8 49.2026 30.9341   6
 -31  21   8 51.4186 22.7884   5
  31 -21  -5 858.544 108.738   6
 -31  21   5 1100.96 106.031   4
  31 -21  -2 14.7068 30.4381   6
 -31  21   2 30.8720 33.2046   4
 -31  21  -1 1081.46 109.760   4
 -10  31   1 1072.24 110.715   8
  21  10  -4 8.82794 25.9626   6
 -10  31   4-14.8233 46.1815   8
  21  10  -7 14.2020 27.8209   6
 -10  31   7 35.1853 44.4959   8
  31 -20  -6 207.294 51.7146   6
 -31  20   3 439.884 54.5426   4
  31 -20  -3 373.336 54.5986   6
 -11  31   0 188.486 40.8994   8
 -31  20   0 171.259 34.9269   4
  20  11  -3 81.8215 27.4446   6
 -31  20  -3 67.8980 38.2279   4
 -11  31   3 52.9983 46.8583   8
  20  11  -6 361.732 45.3971   6
 -11  31   6 313.574 59.0844   8
  31 -19  -7 75.5246 39.9195   6
 -31  19   7 70.6481 28.0618   5
 -31  19   4 206.580 42.0741   4
  31 -19  -4 157.474 44.8699   6
 -12  31  -1 13.8525 35.1877   8
 -31  19   1 21.9457 28.9105   4
 -31  19  -2 130.837 35.6888   4
 -12  31   2 151.373 43.0719   8
 -12  31   5-20.2221 48.4400   8
 -12  31   8-3.56990 39.7796   8
  31 -18  -8 37.3469 31.2225   6
 -31  18   8 22.5494 20.5107   5
 -31  18   5 91.2298 37.3296   4
  31 -18  -5 89.3317 44.1517   6
  31 -18  -2 240.756 36.4134   6
 -31  18   2 217.152 39.9986   4
 -31  18  -1 16.9181 29.3428   4
 -13  31   1 17.4101 33.7510   8
 -13  31   4 79.4564 48.4412   8
 -13  31   4 34.2673 18.5306   5
  18  13  -7 88.4281 29.9270   6
 -13  31   7 29.7921 47.9734   8
  31 -17  -6 97.1217 43.8533   6
 -14  31  -6 117.747 40.6838   7
  31 -17  -3 54.8523 31.3751   6
 -31  17   3 26.8485 32.9315   4
 -31  17   0 742.942 78.5293   4
  17  14  -3 17.8951 29.5042   6
  17  14  -6 375.063 42.8423   6
 -14  31   6 320.059 59.8239   8
 -14  31   6 241.469 35.4847   5
  31 -16  -7 346.177 54.8944   6
 -31  16   7 377.918 44.0585   5
 -15  31  -7 308.759 52.3780   7
 -31  16   4 224.617 40.9688   4
  31 -16  -4 218.910 43.3899   6
 -31  16   1 2528.11 244.312   4
 -31  16  -2 898.112 99.4416   4
 -15  31   2 989.550 95.2177   4
  16  15  -5 84.7199 29.5628   6
 -15  31   5 38.8778 21.9362   5
  31 -15  -8 127.143 36.4078   6
 -31  15   8 124.116 23.4366   5
 -31  15   5 20.0504 32.1082   4
  31 -15  -5 17.1070 38.9227   6
 -16  31  -5 12.3871 41.2489   7
  31 -15  -2 8.16813 24.9493   6
 -31  15   2 2.41979 29.7957   4
 -31  15  -1 10.1783 29.5764   4
 -16  31   1 31.3874 20.7381   4
  15  16  -4 129.176 33.6806   6
 -16  31   7 144.154 25.6998   5
  31 -14  -6 124.955 42.1832   6
 -17  31  -6 98.0586 43.0047   7
 -17  31  -3 121.554 30.9169   4
  31 -14  -3 195.054 34.4823   6
 -31  14   3 232.630 35.8697   4
 -17  31   0 353.332 40.8528   4
 -17  31   0 337.639 51.2647   8
 -17  31   3 77.3301 26.3991   4
 -17  31   3 73.6928 46.9159   8
  14  17  -6 38.6753 32.6425   6
 -17  31   6 7.91509 48.8132   8
 -17  31   6 16.2866 22.2546   5
  31 -13  -7 85.2872 40.1737   6
 -31  13   7 92.3129 23.2555   5
 -18  31  -7 63.1695 39.1625   7
 -31  13   4 14.4219 28.8675   4
 -18  31  -4 36.6560 29.1543   4
  31 -13  -4 41.4590 31.8965   6
 -18  31  -1 337.824 42.1065   4
 -18  31  -1 236.296 51.2966   8
 -31  13  -2 857.986 102.309   4
 -18  31   2 1177.47 107.530   8
 -18  31   2 1013.42 99.7971   4
 -18  31   5 74.7722 50.6474   8
 -18  31   5 24.0621 23.5996   5
 -18  31   8 157.879 44.1965   8
  31 -12  -8 12.6391 32.0005   6
 -19  31  -5 259.969 47.9997   4
  31 -12  -5 405.824 51.9252   6
 -19  31  -5 400.673 56.8648   7
 -19  31  -2 150.954 32.1328   4
  31 -12  -2 146.538 30.0487   6
 -31  12   2 189.516 33.7980   4
 -31  12  -1 2.74091 31.9316   4
 -19  31   1 27.4533 24.3246   4
 -19  31   1 24.5000 32.5086   8
 -19  31   4 47.0947 45.7430   8
 -19  31   7 7.17137 44.3303   8
 -19  31   7 38.4438 22.6118   5
  31 -11  -6 285.272 49.2800   6
 -20  31  -6 182.319 44.0960   4
 -31  11   6 318.693 36.9411   5
 -20  31  -6 313.485 53.7443   7
 -20  31  -3 233.827 39.7673   4
  31 -11  -3 231.617 37.5214   6
 -31  11   3 266.397 37.6420   4
 -20  31   0 83.9423 26.9954   4
 -20  31   0 67.5045 36.2731   8
 -31  11   0 65.7928 31.4717   4
 -20  31   3 28.9130 43.0856   8
 -20  31   6 9.22979 44.6374   8
  31 -10  -7 13.5201 37.4767   6
 -31  10   7 44.8912 19.4036   5
 -21  31  -7 69.1928 42.4332   7
 -21  31  -4 260.507 50.1596   4
  31 -10  -4 358.165 46.7310   6
 -31  10   4 349.273 43.1738   4
 -31  10   1 41.1103 26.7759   4
 -21  31  -1-2.71454 34.3242   8
 -21  31  -1 25.2720 28.7239   4
 -31  10  -2 21.3355 35.4630   4
 -21  31   2 35.6052 28.6198   4
 -21  31   2 24.0971 36.2143   8
 -21  31   5 69.6681 45.9992   8
 -21  31   8-23.3077 36.0426   8
 -21  31   8-4.18093 18.4345   5
  31  -9  -8 71.8559 31.6485   6
  31  -9  -5 60.2081 35.8052   6
 -22  31  -5 6.21719 41.2244   4
 -22  31  -5 28.3902 46.6662   7
 -31   9   2 1603.74 147.868   4
  31  -9  -2 1488.93 147.789   6
 -22  31  -2 1400.98 149.417   4
 -22  31   1 560.449 60.4684   4
 -31   9  -1 581.300 64.4646   4
 -22  31   1 456.919 61.6889   8
 -22  31   4 1502.04 167.899   8
 -22  31   4 1765.23 164.282   4
 -22  31   7 69.2204 41.0279   8
 -22  31   7 38.8381 24.3272   5
  31  -8  -6 127.091 38.3622   6
 -23  31  -6 94.8407 44.6176   4
 -31   8   6 128.899 23.6426   5
 -23  31  -6 183.822 51.9904   7
 -23  31  -3 215.483 41.4835   4
 -31   8   3 144.430 30.2136   4
  31  -8  -3 133.229 30.6660   6
 -23  31   0 93.7076 36.2395   8
 -23  31   0 187.729 33.7162   4
 -31   8   0 177.342 34.4420   4
 -23  31   3 168.016 36.4445   4
 -31   8  -3 182.784 42.9030   4
 -23  31   3 173.791 44.3754   8
 -23  31   6 197.937 45.7882   8
 -23  31   6 197.835 35.3209   5
  31  -7  -7 198.577 40.6834   6
 -24  31  -7 115.140 44.5981   4
 -24  31  -7 257.648 51.4367   7
  31  -7  -4 553.742 58.7633   6
 -24  31  -4 403.525 67.7404   4
  31  -7  -1 61.2845 21.9951   6
 -31   7   1 87.7231 26.6688   4
 -24  31  -1 103.032 33.6537   4
 -31   7  -2 21.5987 44.0442   4
 -24  31   2 20.1929 30.7618   4
 -24  31   2 30.3632 35.7326   8
 -24  31   5 103.308 43.4819   8
  24 -31  -8 49.5194 33.6683   6
 -24  31   8 1.75206 19.1469   5
  31  -6  -8 23.0686 27.7289   6
  31  -6  -5 1056.61 106.434   6
 -25  31  -5 847.259 112.702   4
 -25  31  -5 1124.51 114.233   7
 -25  31  -2 46.0389 37.3020   4
  31  -6  -2 27.4044 23.1811   6
 -31   6   2 42.3256 24.1964   4
   6  25   2 70.3241 33.2692   8
 -25  31  -2 1.66765 37.4545   8
 -25  31   1 428.989 45.6332   4
 -25  31   1 246.236 45.5459   8
   6  25  -1 258.818 38.5510   8
 -31   6  -1 388.397 49.8380   4
 -25  31   4 129.653 35.9325   4
 -25  31   4 60.9291 40.2017   8
 -25  31   7 443.127 54.0052   8
 -25  31   7 347.964 46.3405   5
  31  -5  -6 75.1820 34.4310   6
 -26  31  -6 107.393 53.3617   4
 -26  31  -6 87.3921 53.8207   7
 -26  31  -3 106.845 43.9448   4
  31  -5  -3 120.159 27.3776   6
   5  26   3 66.8284 36.1965   8
   5  26   0 69.6866 28.5996   8
 -26  31   0 46.0349 30.0037   8
 -31   5   0 50.2250 28.8940   4
 -26  31   0 44.0416 31.6116   4
 -31   5  -3 56.2565 50.5600   4
 -26  31   3 123.890 35.4767   4
 -26  31   3 49.5705 37.8534   8
   5  26  -3 41.7399 25.3613   8
 -26  31   6 11.2268 37.5155   8
 -26  31   6-6.50015 26.9467   5
  31  -4  -7 401.492 46.7809   6
 -27  31  -7 138.354 56.7137   4
  31  -4  -4 98.7812 30.3142   6
 -27  31  -4 46.5060 51.8311   4
   4  27   4 127.388 37.7773   8
  31  -4  -1 361.713 38.4370   6
   4  27   1 295.671 43.6540   8
 -27  31  -1 410.076 48.1847   4
 -27  31   2 701.767 70.3506   4
 -31   4  -2 516.974 81.9958   4
 -27  31   2 575.264 72.2881   8
 -27  31   5 0.43097 38.5108   8
  31  -3  -5 874.096 79.3535   6
   3  28   5 605.856 80.6367   8
 -28  31  -5 625.356 95.4359   4
 -28  31  -2 47.3145 40.7988   4
  31  -3  -2 64.7208 24.6970   6
   3  28   2 54.6754 33.5208   8
 -28  31  -2 8.81188 34.1886   8
 -28  31   1 23.9556 32.7828   8
 -28  31   1 109.185 34.6767   4
   3  28  -1 67.4562 25.9494   8
 -28  31   4 104.067 37.0822   4
 -31   3  -4 70.0087 45.3774   4
 -28  31   4 68.4243 38.6743   8
 -28  31   7 31.0582 31.6746   8
  28 -31  -7 34.7499 36.3015   6
 -28  31   7-3.40563 24.5287   5
  31  -2  -6 39.3493 30.2396   6
 -29  31  -6-13.5365 61.5223   4
   2  29   6 32.3951 33.6555   8
 -29  31  -3 272.022 53.5872   4
  31  -2  -3 282.809 33.6572   6
   2  29   3 217.951 41.6198   8
 -29  31   0 674.741 62.5711   4
   2  29   0 616.353 60.0573   8
 -29  31   3 512.456 61.8650   8
   2  29  -3 382.094 54.9296   8
 -29  31   6 55.2135 36.1131   8
  31  -1  -7 90.2275 30.4454   6
 -30  31  -7 57.5928 52.8324   4
  31  -1  -4 520.573 54.1714   6
 -30  31  -4 420.027 75.1494   4
   1  30   4 384.302 58.8669   8
   1  30   1 10.6985 32.5787   8
 -30  31  -1-7.83646 28.4396   8
 -30  31  -1 31.8162 37.9795   4
 -30  31   2 449.062 51.8562   4
 -30  31   2 291.020 51.6031   8
   1  30  -2 322.131 45.4976   8
 -30  31   5 12.9978 35.1484   8
  31   0  -5 43.1452 28.2894   6
 -31  31  -5-7.46256 63.9624   4
   0  31   5 7.25984 33.6874   8
 -31  31  -2 77.0019 44.5831   4
  31   0  -2 118.747 27.0917   6
   0  31   2 61.5415 35.6341   8
 -31  31  -2-13.6575 32.3933   8
 -31  31   1-31.1816 34.2697   8
 -31  31   1 12.9858 35.8486   4
   0  31  -1-6.81155 26.2096   8
 -31  31   4 230.505 42.4669   4
 -31  31   4 116.850 41.7618   8
  31 -31  -7-28.8901 31.3643   6
 -31  31   7 4.21660 22.7683   5
  32 -31  -6 169.911 42.6351   6
 -32  31   3 283.522 45.8785   4
 -32  31   3 236.878 44.3777   8
  -1  32  -3 171.332 36.9008   8
 -32  31   0 3.52637 30.6749   8
  -1  32   0 44.5628 31.6366   8
 -32  31   0 35.7705 35.8857   4
 -32  31  -3 102.475 50.5037   4
  31   1  -3 142.917 27.2969   6
  -1  32   3 57.8127 36.8047   8
  31   1  -6 16.5831 27.9048   6
 -32  31  -6 70.3341 64.2537   4
  -1  32   6 40.2154 31.0868   8
  32 -30  -7 60.4040 32.1494   6
 -32  30   7 54.6832 24.0387   5
 -32  30   4 74.6466 38.1896   4
 -32  30   4 78.0060 39.3603   8
 -32  30   1 251.431 46.3413   8
 -32  30   1 350.763 46.6743   4
  -2  32  -1 251.308 40.9402   8
  30   2  -2 338.547 35.8855   6
 -32  30  -2 319.652 49.6326   4
  -2  32   2 254.238 43.3463   8
  30   2  -5 1114.12 58.7195   6
 -32  30  -5 986.450 90.2276   4
 -32  29   5 1.89160 36.8800   4
 -32  29   5-10.5428 40.2674   8
  32 -29  -5-14.1020 41.9791   6
 -32  29   2 0.37723 36.9627   4
 -32  29   2-31.1265 36.8067   8
  -3  32  -2 26.8168 32.1185   8
  -3  32   1 4.46211 33.6324   8
 -32  29  -1 21.5140 25.1877   8
 -32  29  -1 45.3504 37.6009   4
  29   3  -4 190.599 28.7238   6
 -32  29  -4 169.645 61.4824   4
  -3  32   4 107.048 41.1262   8
  29   3  -7-1.75423 27.1602   6
 -32  29  -7 14.0263 59.8246   4
  -3  32   7 37.2190 30.0541   8
  32 -28  -6 88.9537 40.1596   6
 -32  28   3 245.743 46.4032   4
 -32  28   3 244.194 50.9706   8
  32 -28  -3 275.162 50.7490   6
 -32  28   0 19.5392 30.6956   8
  -4  32   0 57.8695 31.1229   8
 -32  28   0 15.0637 34.1062   4
  28   4  -3 62.1680 25.4568   6
 -32  28  -3 57.1911 48.2481   4
  -4  32   3 31.3211 38.2504   8
 -32  28  -3-4.94887 24.3525   8
  28   4  -6 0.36871 27.3296   6
  -4  32   6-12.8188 35.8547   8
 -32  28  -6-55.5828 70.4387   4
  32 -27  -7 44.2309 35.0754   6
  32 -27  -4 144.475 48.0218   6
 -32  27   1 62.8300 39.5799   8
 -32  27   1 79.9292 33.9414   4
  -5  32  -1 63.0966 35.8289   8
  27   5  -2 317.475 33.8128   6
 -32  27  -2 316.457 44.7476   4
  -5  32   2 207.407 44.2553   8
  27   5  -5 40.1070 26.9078   6
 -32  27  -5-71.5138 65.8683   4
  -5  32   5 5.43558 41.0698   8
  32 -26  -5 60.1272 44.3702   6
  -6  32  -2 888.250 95.2364   8
 -32  26  -1 263.301 42.8693   4
  -6  32   1 212.018 44.2092   8
  26   6  -4 79.1843 26.1810   6
 -32  26  -4 32.1708 55.5410   4
  -6  32   4 61.2730 42.3915   8
  -6  32   7 42.0276 35.8366   8
 -32  26  -7 59.9144 58.1717   4
  32 -25  -6-2.17938 39.6465   6
  32 -25  -3 909.247 99.7523   6
  -7  32   0 0.36007 31.4801   8
  25   7  -3 32.0551 25.5909   6
 -32  25  -3 28.5091 44.3171   4
  -7  32   3 22.9726 41.2114   8
  25   7  -6 39.9351 27.7795   6
  -7  32   6-24.1849 39.4942   8
  32 -24  -7 131.021 39.2286   6
 -32  24   7 168.530 32.5817   5
 -32  24   4 394.791 55.1496   4
  32 -24  -4 345.076 57.4712   6
  -8  32  -1 332.229 49.4186   8
  24   8  -2 104.534 29.7520   6
  -8  32   2 39.5458 39.3190   8
  24   8  -5 104.514 29.4000   6
  -8  32   5 79.7954 46.2346   8
  24   8  -8 55.2695 27.9955   6
 -32  24  -8 6.77902 38.6503   4
  32 -23  -8 1.01769 26.8523   6
 -32  23   8 38.9926 20.6248   5
 -32  23   5 182.928 43.1627   4
  32 -23  -5 131.859 46.9857   6
 -32  23   2 905.707 96.0728   4
  -9  32   1 247.957 44.7973   8
  23   9  -4 61.7995 27.3918   6
  -9  32   4 119.282 46.9105   8
  23   9  -7 252.084 38.5946   6
  -9  32   7 254.840 49.7215   8
  32 -22  -6 122.400 45.2641   6
 -32  22   3 543.642 63.5035   4
  32 -22  -3 488.692 64.5795   6
 -10  32   0 11.4722 35.1083   8
 -32  22   0 31.6809 29.6396   4
  22  10  -3 31.6055 26.9443   6
 -10  32   3 32.6948 44.9036   8
 -10  32   6 31.3254 43.3035   8
  32 -21  -7 100.125 37.9113   6
 -32  21   7 76.5122 27.8749   5
 -32  21   4 56.0693 37.6683   4
  32 -21  -4 21.0094 41.7859   6
 -11  32  -1-25.9529 37.4503   8
 -32  21   1 1.52865 30.4198   4
 -32  21  -2 23.2218 33.1905   4
 -11  32   2-0.45744 40.7697   8
 -11  32   5 268.264 56.5294   8
 -11  32   8 28.4495 36.0897   8
  32 -20  -8 24.4576 28.1933   6
 -32  20   8-1.18458 19.6400   5
 -32  20   5 37.3785 37.2165   4
  32 -20  -5 7.70050 43.2167   6
  32 -20  -2 53.2104 29.8486   6
 -32  20   2 86.5942 33.7773   4
 -32  20  -1 162.650 34.5289   4
 -12  32   1 135.512 39.0069   8
  20  12  -4 44.8282 26.7409   6
 -12  32   4 33.9116 47.9196   8
  20  12  -7 48.8455 28.5087   6
 -12  32   7 25.1050 43.5806   8
  32 -19  -6 412.833 60.2227   6
 -32  19   3 200.776 40.1634   4
  32 -19  -3 191.277 39.5578   6
 -32  19   0 1211.58 117.809   4
 -13  32   0 1109.78 121.111   8
  19  13  -3 208.992 36.6114   6
 -32  19  -3 129.270 39.7192   4
 -13  32   3 179.218 51.1756   8
  19  13  -6 375.223 47.6241   6
 -13  32   6 327.923 62.1264   8
  32 -18  -7 23.8642 36.8869   6
 -32  18   7 35.8603 24.4440   5
 -32  18   4 3.98250 35.0899   4
  32 -18  -4 27.7670 36.4519   6
 -14  32  -1 33.8037 37.6113   8
 -32  18   1 71.1981 30.0144   4
 -32  18  -2 150.939 35.7860   4
 -14  32   2 171.933 46.3497   8
  18  14  -5 302.914 38.2295   6
 -14  32   5 313.544 57.8220   8
 -14  32   5 175.641 29.0549   5
 -14  32   8 26.1411 39.0447   8
  32 -17  -8 42.7888 29.9928   6
 -32  17   8-4.35205 18.7794   5
  32 -17  -5 518.538 67.3870   6
 -32  17   5 516.462 61.3146   4
  32 -17  -2 260.219 40.2527   6
 -32  17   2 366.263 45.1867   4
 -32  17  -1 297.919 43.0633   4
 -15  32   4-22.1592 19.2252   5
  32 -16  -6 63.8025 41.8031   6
 -32  16   3 366.676 47.1805   4
  32 -16  -3 321.035 47.0167   6
 -32  16   0 122.542 32.5220   4
 -32  16  -3 138.021 36.2925   4
  16  16  -6 101.624 33.0637   6
 -16  32   6 38.0941 20.6615   5
  32 -15  -7 80.3578 40.1126   6
 -32  15   7 123.338 25.0715   5
  32 -15  -4 418.645 56.6395   6
 -32  15   4 443.698 54.0920   4
 -17  32  -1 13.4637 20.2048   4
 -32  15   1-13.7580 28.7787   4
 -17  32   2 41.4445 22.3348   4
 -32  15  -2 8.82816 31.3391   4
 -17  32   5 74.0319 24.1918   5
  32 -14  -8 27.7770 29.2471   6
  32 -14  -5 282.734 48.6534   6
  32 -14  -2 21.2312 25.8998   6
 -32  14   2 37.4770 30.9132   4
 -18  32  -2 17.6003 23.9592   4
 -32  14  -1 78.2425 32.6621   4
 -18  32   1 81.1443 24.4533   4
 -18  32   1 84.8816 35.3465   8
 -18  32   4 36.7216 46.8998   8
 -18  32   7 34.1862 45.1639   8
 -18  32   7 24.6187 20.3207   5
  32 -13  -6 12.5470 37.2601   6
 -19  32  -6-15.7685 41.5368   7
 -32  13   6 7.00031 22.8966   5
 -19  32  -3 59.1180 28.7232   4
  32 -13  -3 71.2794 29.6298   6
 -32  13   3 104.439 31.8825   4
 -19  32   0 188.715 31.4844   4
 -19  32   0 165.450 42.4130   8
 -32  13   0 251.489 37.3475   4
 -19  32   3 17.4603 25.8763   4
 -32  13  -3-3.87550 31.7105   4
 -19  32   3-3.71873 46.6570   8
 -19  32   6 43.0806 46.0817   8
 -19  32   6-26.7207 23.0519   5
  32 -12  -7 120.310 41.2458   6
 -32  12   7 152.575 24.8403   5
 -32  12   4 79.1034 29.4275   4
 -20  32  -4 65.9274 32.2143   4
  32 -12  -4 52.8963 32.8910   6
 -32  12   1 1216.14 103.717   4
 -20  32  -1 1108.33 102.431   4
 -32  12  -2 819.071 96.4458   4
 -20  32   2 1059.60 100.084   8
 -20  32   2 923.988 94.2934   4
 -20  32   5 194.201 51.5581   8
 -20  32   8 23.2583 35.7164   8
  32 -11  -8 79.2628 30.3664   6
 -21  32  -5 15.5752 34.2675   4
  32 -11  -5 43.8503 36.7268   6
 -32  11   2 487.444 54.1856   4
  32 -11  -2 459.323 52.5209   6
 -21  32  -2 428.469 54.6208   4
 -32  11  -1-27.1421 35.4398   4
 -21  32   1 6.51015 26.6997   4
 -21  32   1 8.32445 33.8058   8
 -21  32   4 460.786 65.9114   8
 -21  32   7-11.5996 41.3898   8
 -21  32   7 12.6033 21.9660   5
  32 -10  -6 55.4129 38.7729   6
 -22  32  -6 36.4054 35.6166   4
 -22  32  -6 109.602 46.9379   7
 -32  10   6 96.2851 22.4615   5
 -22  32  -3 210.303 42.1683   4
 -32  10   3 281.011 37.4171   4
  32 -10  -3 266.108 38.1930   6
 -22  32   0-31.9852 28.4213   4
 -22  32   0 0.37951 32.8953   8
 -32  10   0 5.79923 32.7458   4
 -22  32   3 166.842 33.0078   4
 -32  10  -3 51.9691 38.2590   4
 -22  32   3 168.771 45.5545   8
 -22  32   6 11.7555 40.6275   8
 -22  32   6-21.9435 26.1652   5
  32  -9  -7 55.1885 37.7370   6
 -32   9   4 109.853 27.9266   4
 -23  32  -4 106.692 40.5790   4
  32  -9  -4 116.450 33.4964   6
 -32   9   1 94.3934 30.3012   4
 -23  32  -1 27.4847 36.3384   8
 -23  32  -1 82.1331 31.8175   4
 -23  32   2 359.451 45.9994   4
 -32   9  -2 314.791 53.3051   4
 -23  32   2 297.410 50.9902   8
 -23  32   5 148.737 46.7455   8
  23 -32  -8 171.927 39.7043   6
  32  -8  -8 14.7556 27.0119   6
  32  -8  -5 226.814 40.5073   6
 -24  32  -5 165.577 47.8970   4
 -32   8   5 181.494 27.4319   5
 -24  32  -2-0.67796 35.7622   4
  32  -8  -2 12.7040 23.1503   6
 -32   8   2-4.15583 25.3588   4
 -24  32  -2-16.1049 39.5024   8
 -24  32   1 140.790 35.0651   4
 -24  32   1 145.220 36.4966   8
 -32   8  -1 110.115 40.5471   4
 -24  32   4 107.302 35.0471   4
 -24  32   4 68.9350 42.3192   8
 -24  32   7 13.6572 36.2380   8
 -24  32   7-2.43539 22.7610   5
  32  -7  -6 44.7288 34.2197   6
 -25  32  -6 26.8083 44.2260   4
 -25  32  -3 218.097 45.9252   4
 -32   7   3 220.211 32.2969   4
  32  -7  -3 198.042 34.3492   6
 -25  32   0 35.4314 30.5495   8
 -25  32   0 37.7126 30.7808   4
 -32   7   0 36.6368 30.3619   4
 -25  32   3 174.841 38.1957   4
 -32   7  -3 87.9696 47.4105   4
 -25  32   3 178.465 43.1288   8
 -25  32   6 126.502 39.1456   8
 -25  32   6 111.347 29.6655   5
  32  -6  -7 24.9804 31.5450   6
 -26  32  -7 1.29905 36.7829   4
 -26  32  -4 14.3957 45.7888   4
  32  -6  -4 11.3537 28.9508   6
  32  -6  -1-17.4162 21.4574   6
 -32   6   1 0.48187 26.5288   4
 -26  32  -1-12.7984 34.5603   8
 -26  32  -1-1.72816 35.5769   4
 -32   6  -2 31.7911 50.0861   4
 -26  32   2-6.58874 32.7194   4
 -26  32   2 6.62250 36.0173   8
 -26  32   5 11.5027 39.8048   8
  32  -5  -5 44.9262 30.3556   6
 -27  32  -5 5.76820 49.6375   4
 -27  32  -2 207.377 43.2704   4
  32  -5  -2 199.028 29.8036   6
   5  27   2 143.345 36.9377   8
 -27  32   1 1108.03 97.3589   4
 -32   5  -1 1062.75 100.760   4
   5  27  -1 882.072 92.7065   8
 -27  32   4 401.607 53.9680   8
 -27  32   4 452.254 51.2155   4
 -27  32   7 106.481 33.6468   8
 -27  32   7 55.0437 24.4629   5
  32  -4  -6 165.715 36.0910   6
 -28  32  -6 118.864 54.0189   4
  32  -4  -3 873.952 64.4956   6
 -28  32  -3 880.956 76.0138   4
   4  28   0 141.705 32.4397   8
 -28  32   0 82.9491 33.2118   8
 -32   4  -3 26.6785 58.9206   4
 -28  32   3 174.392 38.7116   4
 -28  32   3 127.490 39.6847   8
   4  28  -3 85.1903 27.4879   8
 -28  32   6 20.2912 35.0923   8
 -28  32   6 26.5804 26.6015   5
  32  -3  -7 44.4941 29.2305   6
 -29  32  -7 24.6119 43.1569   4
  32  -3  -4 376.728 43.2396   6
 -29  32  -4 304.795 62.8135   4
   3  29   4 245.387 47.5217   8
   3  29   1 308.362 42.2844   8
 -29  32  -1 399.167 47.2060   4
 -29  32   2 36.3800 35.2830   4
 -29  32   2 0.40316 37.4540   8
   3  29  -2 40.9933 26.9410   8
 -29  32   5-16.0654 35.5069   8
  32  -2  -5 783.521 70.7705   6
 -30  32  -5 693.604 89.4777   4
 -30  32  -2 99.0024 43.9314   4
  32  -2  -2 35.1037 24.8375   6
   2  30   2-0.34570 32.3603   8
 -30  32  -2 0.36452 34.2836   8
 -30  32   1 39.3143 35.9401   4
 -30  32   1 13.4165 33.6817   8
   2  30  -1 7.62622 25.2228   8
 -30  32   4 50.1069 36.8241   4
 -30  32   4 36.6540 36.8725   8
   2  30  -4 12.9689 25.3372   8
  30 -32  -7 198.392 40.4827   6
 -30  32   7 221.586 32.1838   5
  32  -1  -6 249.214 38.0033   6
 -31  32  -6 154.928 63.7180   4
 -31  32  -3 165.386 51.8492   4
  32  -1  -3 231.666 29.9127   6
   1  31   3 116.964 37.9463   8
   1  31   0 82.5718 32.0442   8
 -31  32   0 52.7076 32.5219   8
 -31  32   0 127.023 36.9882   4
 -31  32   3 73.0230 38.4439   4
 -31  32   3 59.9439 37.2174   8
   1  31  -3 38.4889 27.1217   8
 -31  32   6 163.978 36.2503   8
  31 -32  -6 169.828 41.4732   6
 -31  32   6 119.525 29.5009   5
  32   0  -7 31.6527 25.7131   6
 -32  32  -4 9.39384 56.6708   4
  32   0  -4 16.7248 25.5855   6
   0  32   4 50.9025 34.2643   8
 -32  32  -4 11.9305 31.2032   8
   0  32   1 30.0118 33.2309   8
 -32  32  -1 18.1271 27.3711   8
 -32  32  -1-26.2179 40.4377   4
   0  32  -2 359.202 47.9139   8
 -32  32   2 310.997 52.2153   8
 -32  32   5 9.61064 33.2669   8
   0  32  -5-4.50488 24.0198   8
 -33  32   7 2.37151 19.6941   5
 -33  32   4 25.3904 35.4083   4
 -33  32   4 25.2419 35.2279   8
  33 -32  -4-9.82690 41.9804   6
  -1  33  -4 2.73931 26.0541   8
 -33  32   1 5.72331 34.6256   8
 -33  32   1 4.49619 37.3840   4
  -1  33  -1 5.51122 27.3562   8
  -1  33   2 54.2406 34.4401   8
 -33  32  -2 35.5432 25.9290   8
 -33  32  -2 96.4508 45.3785   4
  32   1  -5 25.0694 26.0152   6
 -33  32  -5-40.5259 61.9351   4
  -1  33   5 13.9595 31.1385   8
  33 -31  -5 32.3013 40.9940   6
  -2  33  -5 2.20489 26.1019   8
 -33  31   2 592.377 81.8168   8
  -2  33  -2 682.933 80.0213   8
  -2  33   1 25.1958 34.7379   8
 -33  31  -1 11.1750 26.5997   8
 -33  31  -1 60.4081 40.7939   4
  31   2  -4 49.2826 25.8298   6
 -33  31  -4-9.73453 59.3653   4
  -2  33   4 33.9049 36.0491   8
 -33  31  -4-7.62192 25.1644   8
  31   2  -7 12.7556 25.4443   6
  33 -30  -6 5.50672 35.3316   6
 -33  30   3-17.1230 38.9128   4
 -33  30   3 36.3282 39.2613   8
  33 -30  -3-1.61622 41.0490   6
  -3  33  -3-6.67620 31.0118   8
 -33  30   0 47.4232 30.0599   8
  -3  33   0 26.6956 32.4557   8
 -33  30   0 38.7802 35.6498   4
  30   3  -3 142.653 27.8359   6
 -33  30  -3 80.0771 50.8830   4
  -3  33   3 42.8114 37.4456   8
 -33  30  -3-26.7858 26.2576   8
  30   3  -6 3.51700 26.7841   6
 -33  30  -6 0.62317 65.3038   4
  -3  33   6-18.7515 32.6502   8
  33 -29  -7 69.6629 31.5231   6
 -33  29   4 145.662 40.7121   4
  33 -29  -4 121.717 46.0939   6
 -33  29   1 731.135 97.4530   8
  -4  33  -1 897.120 95.8578   8
 -33  29  -2 653.089 70.9816   4
  -4  33   2 452.580 68.3469   8
  29   4  -5 109.131 28.6283   6
 -33  29  -5 112.356 67.5344   4
  -4  33   5 53.5742 38.0070   8
  33 -28  -5 44.8482 42.1609   6
 -33  28   2 857.747 78.7344   4
  -5  33  -2 550.295 76.4675   8
  -5  33   1 31.7501 36.3639   8
 -33  28  -1 38.4921 37.5023   4
  28   5  -4 86.3112 28.1216   6
 -33  28  -4 147.494 57.7138   4
  -5  33   4 90.0174 41.6147   8
  28   5  -7 9.99419 27.1480   6
 -33  28  -7 38.1022 56.4639   4
  -5  33   7 26.2408 31.1411   8
  33 -27  -6 299.207 50.8839   6
  33 -27  -3 29.9622 41.3059   6
  -6  33   0 192.445 40.9156   8
 -33  27   0 307.711 42.7448   4
  27   6  -3 208.318 32.1270   6
 -33  27  -3 111.429 49.3961   4
  -6  33   3 118.513 42.9433   8
  27   6  -6 256.518 37.7297   6
 -33  27  -6 181.375 67.5927   4
  -6  33   6 228.823 45.2828   8
  33 -26  -7 19.5451 32.0919   6
 -33  26   7 32.4522 25.2484   5
  33 -26  -4 122.394 45.3192   6
  -7  33  -1 113.981 38.8777   8
 -33  26  -2 330.701 50.1578   4
  -7  33   2 278.972 51.5366   8
  26   7  -5 384.424 45.3325   6
 -33  26  -5 215.132 70.7215   4
  -7  33   5 356.257 56.1837   8
 -33  25   5 115.278 40.1326   4
  33 -25  -5 132.186 44.8834   6
  -8  33  -2 32.3337 37.8916   8
  -8  33   1 14.3927 37.2104   8
  25   8  -4 14.8139 25.2095   6
  -8  33   4 10.8586 42.7885   8
  -8  33   7 18.9498 35.8709   8
 -33  25  -7-3.59766 48.1933   4
  33 -24  -6 31.8033 39.4527   6
 -33  24   3 209.686 42.2987   4
  33 -24  -3 187.326 44.3121   6
  -9  33   0-3.81905 32.9402   8
  24   9  -3 43.0475 27.5151   6
  -9  33   3 30.1389 43.4799   8
  -9  33   6 25.5157 39.8966   8
  33 -23  -7 1.28847 32.4099   6
 -33  23   7 5.09374 25.4018   5
 -33  23   4-19.0032 38.8709   4
  33 -23  -4-6.18511 41.9342   6
 -10  33  -1 42.7978 38.9691   8
 -33  23   1 20.8791 32.0210   4
 -10  33   2 2.82463 41.3715   8
  23  10  -5 20.6928 26.5545   6
 -10  33   5 8.45392 46.1820   8
  33 -22  -5 405.952 63.8825   6
 -33  22   5 485.607 59.4115   4
 -33  22   2 593.658 57.5047   4
 -11  33  -2 256.254 59.5273   8
 -33  22  -1 533.699 60.8352   4
 -11  33   1 487.085 63.4583   8
  22  11  -4 54.8734 28.1634   6
 -11  33   4 8.10875 47.8041   8
  22  11  -7 96.9694 30.8206   6
 -11  33   7 67.4816 41.9879   8
  33 -21  -6 24.4362 38.5998   6
 -33  21   3 273.311 43.4681   4
  33 -21  -3 197.987 43.0936   6
 -12  33   0 19.7055 36.1856   8
 -33  21   0 37.6461 31.2816   4
  21  12  -3 132.240 33.9498   6
 -33  21  -3 92.6889 40.0621   4
 -12  33   3 118.942 50.2161   8
  21  12  -6 114.238 31.0820   6
 -12  33   6 93.0215 46.1676   8
  33 -20  -7 55.4483 34.7873   6
 -33  20   7 44.6371 25.0780   5
 -33  20   4 74.2542 36.9856   4
  33 -20  -4 35.1914 38.4847   6
 -13  33  -1 76.3017 39.3733   8
 -33  20   1 138.145 33.3684   4
 -33  20  -2 36.0648 32.4778   4
 -13  33   2-17.2201 40.6384   8
 -13  33   5 133.109 53.0940   8
 -13  33   8 19.1822 35.0768   8
 -33  20  -8-18.7903 22.8968   4
  33 -19  -8 51.0052 27.6288   6
 -33  19   5 23.4005 33.9265   4
  33 -19  -5 19.6015 39.8072   6
 -33  19   2 384.541 51.3522   4
 -33  19  -1 170.200 36.4954   4
 -14  33   1 160.887 41.1618   8
 -14  33   4 89.6853 49.2169   8
 -14  33   7 111.818 46.2712   8
  33 -18  -6 186.347 45.0977   6
 -33  18   3 1116.05 106.915   4
  33 -18  -3 955.135 106.511   6
 -33  18   0 18.4574 29.8384   4
 -33  18  -3-9.63136 33.9258   4
  18  15  -6 285.518 41.6805   6
 -15  33   6 200.320 54.7905   8
  33 -17  -7-3.19865 34.9207   6
 -33  17   7 14.0614 21.9708   5
 -33  17   4 28.8839 33.4292   4
  33 -17  -4 24.6073 34.8871   6
 -33  17   1 102.084 31.8677   4
 -33  17  -2 87.7730 33.7288   4
 -16  33   5 160.083 25.7904   5
  33 -16  -8 13.2661 27.0038   6
  33 -16  -5 50.6448 39.2540   6
  33 -16  -2 35.5974 26.7779   6
 -33  16   2 30.2329 32.9910   4
 -33  16  -1 246.676 38.8060   4
 -17  33   1 176.744 28.9202   4
  33 -15  -6 168.043 42.9905   6
 -33  15   6 163.178 29.3298   5
  33 -15  -3 374.894 52.2668   6
 -33  15   3 480.822 53.7204   4
 -18  33   0 1448.87 146.962   4
 -33  15   0 1772.70 150.147   4
 -18  33   0 1335.51 151.729   8
 -18  33   3 224.872 33.2405   4
 -33  15  -3 201.026 40.4684   4
 -18  33   3 244.451 54.9649   8
 -18  33   6 0.53185 45.8181   8
 -18  33   6 1.54199 20.0360   5
  33 -14  -7 73.3468 37.7606   6
 -33  14   7 89.7676 22.2494   5
 -33  14   4 56.6596 30.0134   4
  33 -14  -4 40.6464 34.1604   6
 -19  33  -1 59.0049 24.0287   4
 -33  14   1 52.6014 30.5929   4
 -19  33  -1 15.0558 39.1044   8
 -33  14  -2 53.0082 33.8021   4
 -19  33   2 35.1807 24.8692   4
 -19  33   2 49.9317 40.1311   8
 -19  33   5 171.360 52.0446   8
 -19  33   5 106.081 26.4505   5
 -19  33   8 55.6039 35.6681   8
  33 -13  -8 53.2498 28.3592   6
  33 -13  -5 265.463 46.3602   6
  33 -13  -2 166.445 30.9583   6
 -33  13   2 189.939 36.2741   4
 -20  33  -2 156.380 32.0435   4
 -33  13  -1 14.0219 35.1305   4
 -20  33   1-3.02620 24.1249   4
 -20  33   1 6.06043 36.0696   8
 -20  33   4 107.108 48.9189   8
 -20  33   7 17.1920 40.6703   8
 -20  33   7 17.9449 19.6603   5
  33 -12  -6 84.0345 39.3089   6
 -33  12   6 59.4051 22.8270   5
 -21  33  -3 69.9855 32.6704   4
  33 -12  -3 136.614 32.1733   6
 -33  12   3 141.090 32.2919   4
 -21  33   0 111.860 30.5175   4
 -21  33   0 105.256 38.2245   8
 -33  12   0 199.581 36.6544   4
 -21  33   3 471.386 62.8426   8
 -21  33   3 492.640 50.4500   4
 -21  33   6 133.643 44.2832   8
 -21  33   6 80.2594 25.6624   5
  33 -11  -7 0.45028 33.8100   6
 -33  11   4 17.0795 27.7201   4
 -22  33  -4-6.60136 32.2720   4
  33 -11  -4 1.29208 31.7726   6
 -33  11   1 75.9980 30.8131   4
 -22  33  -1 12.7770 37.7795   8
 -22  33  -1 72.1029 29.1577   4
 -33  11  -2 14.9554 37.6709   4
 -22  33   2 23.6290 28.8700   4
 -22  33   2 42.5426 40.5902   8
 -22  33   5 396.964 61.8260   8
 -23  33  -5 19.5758 34.5775   4
  33 -10  -5-4.11487 33.5094   6
  33 -10  -2 49.9522 24.5183   6
 -33  10   2 48.6385 27.8804   4
 -23  33  -2-17.4469 42.4034   8
 -23  33  -2 66.4917 33.0093   4
 -33  10  -1 88.6424 38.8741   4
 -23  33   1 72.6842 30.7368   4
 -23  33   1 63.0395 36.7707   8
 -23  33   4 62.9937 31.3555   4
 -33  10  -4 40.1895 30.2555   4
 -23  33   4 33.0035 43.8458   8
 -23  33   7-34.0352 37.2788   8
 -23  33   7 13.9687 20.9572   5
 -24  33  -6 51.1542 34.7146   4
  33  -9  -6 88.8065 36.3733   6
 -24  33  -3 46.5912 37.2967   4
 -33   9   3 41.1762 27.0139   4
  33  -9  -3 50.6410 27.9044   6
 -24  33   0-8.04733 32.7269   8
 -33   9   0-16.8526 32.3648   4
 -33   9  -3 311.721 56.0642   4
 -24  33   3 369.187 58.1006   8
 -24  33   3 458.975 51.1482   4
 -24  33   6-4.28023 38.5488   8
 -24  33   6 26.7132 25.5127   5
  33  -8  -7 40.3033 31.7503   6
 -25  33  -4 39.7627 40.9747   4
  33  -8  -4 68.2006 30.6561   6
 -33   8   1 105.908 31.1961   4
 -25  33  -1 29.9043 38.1426   8
 -25  33  -1 96.7537 34.5807   4
 -25  33   2 900.838 84.2574   4
 -33   8  -2 684.980 91.4148   4
 -25  33   2 698.331 86.4761   8
 -25  33   5 319.279 52.8767   8
 -26  33  -5 50.7590 42.1166   4
  33  -7  -5 20.0810 31.1971   6
  33  -7  -2 661.579 60.3386   6
 -26  33  -2 645.298 66.2197   4
 -33   7   2 668.753 60.4842   4
 -26  33   1 169.600 37.1560   4
 -26  33   1 92.6934 39.2915   8
 -33   7  -1 130.522 45.4144   4
 -26  33   4 527.538 63.2575   8
 -26  33   4 635.951 59.6709   4
 -26  33   7 63.2138 33.0506   8
 -33   7  -7 0.10818 12.8097   4
 -26  33   7 63.5487 22.3604   5
  33  -6  -6 382.976 46.3428   6
 -27  33  -6 203.847 52.2975   4
 -27  33  -3 43.7011 42.8659   4
  33  -6  -3 38.0512 25.5323   6
 -27  33  -3 47.6865 46.6605   8
 -33   6   0 162.786 35.8661   4
 -27  33   0 78.7953 33.6115   8
 -27  33   0 151.108 36.4559   4
 -33   6  -3 185.784 56.3395   4
 -27  33   3 303.392 44.9191   4
 -27  33   3 240.416 45.7774   8
 -33   6  -6 12.0791 16.7919   4
 -27  33   6 3.08228 34.6438   8
 -27  33   6-5.68758 25.8159   5
  33  -5  -7-7.60087 27.9137   6
  33  -5  -4 435.785 51.4676   6
 -28  33  -4 374.721 63.4456   4
 -28  33  -1-16.1641 34.0161   8
 -28  33  -1 7.56269 37.3714   4
 -28  33   2 807.199 77.4003   4
 -28  33   2 599.468 79.0199   8
 -33   5  -2 593.030 91.0748   4
 -33   5  -5 0.22195 24.9291   4
 -28  33   5 68.6246 35.8904   8
 -29  33  -5-18.7211 50.6510   4
  33  -4  -5 16.0602 28.2429   6
  33  -4  -2 16.7265 24.6476   6
   4  29   2 24.7127 32.4090   8
 -29  33  -2-4.79955 36.8520   8
 -29  33  -2 17.8179 40.2842   4
 -29  33   1 28.2530 36.7613   4
 -29  33   1-21.7532 33.7628   8
   4  29  -1 28.3995 25.0181   8
 -29  33   4 51.8009 36.0277   4
 -29  33   4 49.7801 37.7876   8
  29 -33  -7 18.1354 33.2402   6
 -29  33   7 32.9050 21.6163   5
  33  -3  -6 42.8398 29.7917   6
 -30  33  -6 21.7951 49.5778   4
 -30  33  -3 37.5075 46.6606   4
  33  -3  -3 24.5352 25.4069   6
   3  30   3 2.47518 33.9535   8
 -30  33  -3 13.0154 37.5234   8
   3  30   0 22.1781 28.3520   8
 -30  33   0 6.87887 32.1964   8
 -30  33   0 38.8524 34.9587   4
 -30  33   3 72.3278 37.1178   4
 -30  33   3 53.7853 37.3132   8
   3  30  -3 12.2122 25.2791   8
 -30  33   6 80.4489 33.0489   8
  30 -33  -6 59.5410 39.0992   6
 -30  33   6 60.5232 26.7727   5
  33  -2  -7 9.59520 25.0265   6
 -31  33  -4 20.9922 53.2426   4
   2  31   4 102.854 33.4686   8
 -31  33  -4-34.3873 38.2707   8
   2  31   1-0.34156 32.6495   8
 -31  33  -1 20.8796 29.2266   8
 -31  33  -1 96.6346 39.4594   4
 -31  33   2 202.761 40.2365   4
 -31  33   2 133.484 38.9390   8
   2  31  -2 118.386 28.8682   8
 -31  33   5 26.4874 32.7991   8
  33  -1  -5 356.082 35.8806   6
 -32  33  -5 275.743 62.6909   4
   1  32   2 426.598 40.8758   8
 -32  33  -2 508.854 51.6836   4
 -32  33   1 347.294 46.4371   4
   1  32  -1 247.000 36.0786   8
 -32  33   4 131.910 36.5310   4
 -32  33   4 80.9877 36.1096   8
   1  32  -4 33.4698 25.5001   8
 -33  33  -6 73.7479 56.4230   4
  33   0  -6 87.6626 27.6521   6
 -33  33  -3 269.860 55.8073   4
  33   0  -3 287.781 33.4144   6
   0  33   3 140.828 37.6033   8
   0  33   0 232.397 37.3888   8
 -33  33   0 274.859 43.4361   4
 -33  33   3-31.4282 38.0053   4
 -33  33   3-17.9912 34.5569   8
   0  33  -3 1.70963 27.3350   8
  33 -33  -6 118.278 35.6860   6
 -33  33   6 86.4918 26.5250   5
  34 -33  -5 6.05156 36.5460   6
  -1  34  -5-19.8458 22.2763   8
 -34  33   2 23.8680 36.7678   4
 -34  33   2-23.0089 33.6799   8
  -1  34  -2-23.3064 25.6108   8
  -1  34   1 110.060 35.6624   8
 -34  33  -1 200.675 41.8256   4
  33   1  -4 409.461 43.4713   6
 -34  33  -4 376.515 67.3900   4
  34 -32  -6 99.4402 34.7444   6
 -34  32   6 65.2608 24.8133   5
  -2  34  -3 529.244 84.5436   8
 -34  32   3 1354.59 90.7520   4
 -34  32   0 119.253 38.2549   8
  -2  34   0 251.816 41.6493   8
 -34  32  -3 330.270 65.7647   4
  -2  34   3 201.839 49.8951   8
  32   2  -6 240.337 34.5856   6
 -34  32  -6 51.1733 62.8308   4
 -34  31   7 60.5887 21.3656   5
 -34  31   4 5.04261 35.5465   4
  34 -31  -4 0.52815 41.6333   6
  -3  34  -4 11.6778 28.0551   8
 -34  31   1 74.4946 37.9743   4
  -3  34  -1 67.5427 29.5306   8
 -34  31  -2 63.2033 44.1638   4
  -3  34   2 15.2136 36.4202   8
  31   3  -5 275.582 37.6855   6
 -34  31  -5 229.050 69.6899   4
  -3  34   5 223.499 41.6004   8
  34 -30  -5 338.196 53.0924   6
 -34  30   2 357.264 47.3473   4
  -4  34  -2 208.459 44.4375   8
  -4  34   1 1.93393 35.6969   8
 -34  30  -1 71.4090 40.4411   4
  30   4  -4-13.5968 25.6514   6
  -4  34   4 12.6542 36.7192   8
  30   4  -7 44.9163 27.4055   6
 -34  30  -7 19.3745 50.7361   4
  34 -29  -6-1.38745 36.0721   6
 -34  29   3 164.135 40.4758   4
  -5  34  -3 85.8084 35.5474   8
  -5  34   0 71.2980 34.5168   8
 -34  29   0 56.5423 35.2349   4
  29   5  -3 853.349 81.2611   6
 -34  29  -3 774.294 91.3172   4
  -5  34   3 622.064 85.3405   8
  29   5  -6 194.275 32.6774   6
 -34  29  -6 110.292 64.2995   4
  -5  34   6 150.573 38.2680   8
  34 -28  -7-47.6336 28.9843   6
  34 -28  -4-24.8438 42.7291   6
  -6  34  -1-6.83603 34.8122   8
 -34  28  -2 76.8301 42.8260   4
  -6  34   2-7.24867 41.4680   8
  28   6  -5 25.7250 25.7516   6
 -34  28  -5 24.3234 61.2797   4
  -6  34   5 20.3685 37.7995   8
  34 -27  -5 82.3047 42.5273   6
  -7  34  -2 124.589 38.5817   8
  -7  34   1 14.8755 37.7161   8
  27   7  -4-12.5158 26.1105   6
 -34  27  -4 4.10632 51.4113   4
  -7  34   4 3.65512 40.8825   8
  -7  34   7 42.4064 31.7784   8
 -34  27  -7-33.6003 48.5401   4
  34 -26  -6 12.8452 36.1825   6
  -8  34  -3-9.91848 38.3022   8
  -8  34   0 18.3771 33.0672   8
  26   8  -3-8.13611 27.6954   6
  -8  34   3-4.65502 40.9090   8
  26   8  -6 206.478 32.8574   6
 -34  26  -6 79.8070 55.5547   4
  -8  34   6 124.077 41.8269   8
  34 -25  -7 120.787 35.2906   6
 -34  25   7 201.225 30.6476   5
 -34  25   4 369.179 54.9667   4
  34 -25  -4 420.641 59.5692   6
  -9  34  -1 989.953 105.655   8
  -9  34   2 1245.12 130.054   8
  25   9  -5 114.390 29.0553   6
  -9  34   5 74.7646 44.7805   8
 -34  24   5 52.3717 37.0216   4
  34 -24  -5 31.3851 41.6074   6
 -34  24   2 493.832 51.2434   4
 -10  34  -2 186.107 52.7684   8
 -34  24  -1 85.3756 34.8842   4
  24  10  -4 55.1361 28.4394   6
 -10  34   4 122.493 45.8173   8
  24  10  -7-37.9896 29.0693   6
 -10  34   7 23.4814 35.7646   8
  34 -23  -6 607.899 72.6994   6
 -34  23   3 25.8736 36.3513   4
  34 -23  -3 57.4781 37.0393   6
 -34  23   0 480.754 54.9429   4
 -11  34   0 378.446 56.7225   8
 -34  23  -3 45.4143 39.1684   4
 -11  34   3 117.867 47.1704   8
 -11  34   6 96.3340 42.8947   8
  34 -22  -7 59.0271 31.3386   6
 -34  22   7 31.9352 24.1272   5
 -34  22   4 6.41737 36.6455   4
  34 -22  -4 13.5259 38.7545   6
 -12  34  -1 211.466 48.4746   8
 -34  22   1 284.786 42.2517   4
 -34  22  -2 264.263 45.9564   4
 -12  34   2 319.444 53.6907   8
 -34  22  -5 172.039 47.1073   4
 -12  34   5 364.774 55.3829   8
 -34  21   5 156.329 37.7175   4
  34 -21  -5 80.8565 41.3783   6
 -34  21   2 237.340 40.1853   4
 -13  34  -2 94.9059 45.2080   8
 -34  21  -1 172.145 38.7771   4
 -13  34   1 217.680 43.7660   8
  21  13  -4 12.6075 31.2760   6
 -34  21  -4-24.6993 37.2508   4
 -13  34   4 60.7679 47.4125   8
 -13  34   7 49.5582 41.0466   8
 -34  21  -7 5.50555 27.8963   4
  34 -20  -6 3.00204 37.4245   6
  34 -20  -3 101.689 35.0451   6
 -34  20   3 52.5823 36.0347   4
 -14  34   0-27.9180 36.6178   8
 -34  20   0 2.92440 32.3468   4
 -34  20  -3 49.3607 35.9429   4
 -14  34   3 122.419 48.6451   8
 -14  34   6 87.7768 44.7953   8
  34 -19  -7-42.2485 32.9839   6
 -34  19   7-16.8259 21.6842   5
  34 -19  -4 439.993 63.9559   6
 -34  19   4 581.200 62.7866   4
 -34  19   1 26.6522 30.9496   4
 -15  34  -1-5.51262 39.5244   8
 -34  19  -2 1.63398 33.1755   4
 -15  34   2 0.49501 42.6933   8
 -15  34   5 31.0511 48.7307   8
 -34  18   5 96.4638 34.2920   4
  34 -18  -5 81.8633 38.9086   6
 -34  18   2 683.534 75.5770   4
 -34  18  -1 1422.89 142.126   4
 -34  18  -4 24.4594 31.6799   4
  34 -17  -6 18.7973 36.8312   6
  34 -17  -3 53.7565 31.5260   6
 -34  17   3 33.0863 33.2860   4
 -34  17   0 46.7902 32.9080   4
 -34  17  -3 28.8070 32.7808   4
  34 -16  -7-22.9902 33.5742   6
 -34  16   7 9.36036 19.6023   5
 -34  16   4 23.6737 31.8840   4
  34 -16  -4 20.6384 34.7375   6
 -34  16   1 114.801 34.0427   4
 -18  34   2 137.124 26.0747   4
 -34  16  -2 110.829 35.5423   4
 -18  34   5 12.7047 19.9720   5
  34 -15  -5 25.2888 36.8774   6
 -34  15   2 567.813 55.0002   4
 -19  34  -2 204.628 61.6748   8
 -34  15  -1 580.411 67.8049   4
 -19  34   1 643.013 69.9234   8
 -19  34   1 559.111 61.7195   4
 -34  15  -4 75.0461 30.4100   4
 -19  34   4 205.914 49.8670   8
 -19  34   7 125.166 43.7198   8
  34 -14  -6 289.555 52.2237   6
 -34  14   6 361.300 41.9088   5
  34 -14  -3 8.36088 30.7033   6
 -34  14   3-25.0088 31.7937   4
 -20  34   0 35.1162 24.5198   4
 -20  34   0 17.3696 35.5908   8
 -34  14   0 5.84876 32.7174   4
 -20  34   3 7.88035 25.5905   4
 -34  14  -3 29.1718 33.1117   4
 -20  34   3-9.11271 47.0680   8
 -20  34   6 103.067 43.3595   8
 -20  34   6 42.6857 21.6664   5
  34 -13  -7-19.8463 32.2634   6
 -34  13   4 133.476 32.9414   4
  34 -13  -4 131.718 37.6111   6
 -34  13   1 6.50314 31.8474   4
 -21  34  -1 20.6605 25.3511   4
 -21  34  -1-46.6000 39.4707   8
 -34  13  -2 24.2880 35.9971   4
 -21  34   2 39.6468 27.6148   4
 -21  34   2 45.9908 44.0722   8
 -21  34   5 467.603 61.1439   8
 -21  34   5 322.103 43.4635   5
  34 -12  -5 113.520 37.4124   6
  34 -12  -2 20.8547 24.0243   6
 -34  12   2 3.50099 29.2472   4
 -22  34  -2-16.7446 43.5785   8
 -22  34  -2-0.81693 29.3516   4
 -22  34   1 262.781 38.4815   4
 -22  34   1 239.960 46.8711   8
 -34  12  -1 313.171 47.0622   4
 -34  12  -4 21.5437 28.3010   4
 -22  34   4 45.7007 45.5694   8
 -22  34   7 60.1936 37.3878   8
 -34  12  -7-6.26772 13.5272   4
 -22  34   7 37.6820 19.8248   5
  34 -11  -6 142.322 40.4567   6
 -34  11   6 176.525 27.3956   5
 -23  34  -3 75.8937 34.2629   4
 -34  11   3 128.454 31.4039   4
  34 -11  -3 114.680 30.5071   6
 -23  34   0 95.3277 30.0770   4
 -23  34   0 55.1318 35.2266   8
 -34  11   0 62.9713 34.7625   4
 -23  34   3 615.800 72.4784   8
 -23  34   3 686.391 64.0198   4
 -23  34   6 130.603 41.9999   8
 -23  34   6 123.637 27.0278   5
  34 -10  -7 12.9630 30.6552   6
 -24  34  -4 161.113 37.8785   4
  34 -10  -4 137.901 34.9825   6
 -34  10   1 267.156 40.3711   4
 -24  34  -1 218.755 37.3072   4
 -34  10  -2 41.2108 42.3381   4
 -24  34   2 30.9810 31.7607   4
 -24  34   2 25.7971 39.6571   8
 -34  10  -5 0.41230 21.6073   4
 -24  34   5 43.7668 41.4742   8
 -25  34  -5 142.271 40.1711   4
  34  -9  -5 210.522 38.0945   6
  34  -9  -2 8.48341 24.6011   6
 -34   9   2-0.27123 28.9661   4
 -25  34  -2-11.6535 41.9447   8
 -25  34  -2 3.57500 34.1127   4
 -25  34   1 26.4851 32.1233   4
 -25  34   1-17.6694 37.8308   8
 -34   9  -1 9.83133 42.4970   4
 -25  34   4 589.055 62.6600   8
 -25  34   4 709.244 55.7769   4
 -25  34   7 48.2392 33.0344   8
 -34   9  -7-11.4109 12.5993   4
 -25  34   7 59.6611 20.3946   5
 -26  34  -6-25.9660 33.8143   4
  34  -8  -6-0.41225 31.0705   6
 -26  34  -3-31.4138 39.1200   4
 -34   8   3-4.75823 25.7187   4
  34  -8  -3 8.87511 26.6343   6
 -26  34  -3 21.2373 48.4611   8
 -26  34   0 46.7880 32.6444   4
 -26  34   0 38.0161 32.7148   8
 -34   8   0 31.8901 36.2340   4
 -34   8  -3 375.316 70.3804   4
 -26  34   3 506.502 68.9623   8
 -26  34   6 202.878 37.5788   8
 -26  34   6 184.654 28.0526   5
  34  -7  -7 15.5378 27.9970   6
 -27  34  -4 282.585 50.9414   4
  34  -7  -4 295.202 41.3942   6
 -34   7   1 28.3424 29.8908   4
 -27  34  -1 34.2402 35.7691   8
 -27  34  -1 44.0973 34.0325   4
 -27  34   2 497.598 56.1261   4
 -34   7  -2 503.519 72.3348   4
 -27  34   2 329.614 59.1674   8
 -34   7  -5-0.20281 22.1448   4
 -27  34   5 39.7517 37.3087   8
 -28  34  -5 62.0731 44.0138   4
  34  -6  -5 67.4364 30.8780   6
  34  -6  -2 168.427 29.1315   6
 -28  34  -2 193.283 43.1562   4
 -28  34   1 49.2989 36.7513   4
 -28  34   1 82.4628 35.8213   8
 -34   6  -1 73.1332 45.8597   4
 -28  34   4-46.2772 34.6340   4
 -34   6  -4 24.8501 34.6555   4
 -28  34   4 5.42489 37.7483   8
 -28  34   7 13.2833 28.4099   8
  28 -34  -7-0.85109 32.9131   6
 -28  34   7 2.08150 19.6993   5
 -29  34  -6 10.8820 40.3136   4
  34  -5  -6 42.2467 29.2129   6
 -29  34  -3 213.901 50.2363   4
  34  -5  -3 293.245 34.2376   6
 -29  34   0-13.9028 32.7704   8
 -29  34   0 15.7238 35.4638   4
 -29  34   3 219.013 40.5786   4
 -29  34   3 85.5135 40.0153   8
 -29  34   6-28.4812 32.3776   8
 -29  34   6 4.58183 24.8588   5
  34  -4  -7 34.2813 25.4026   6
 -30  34  -4 64.8149 48.2700   4
  34  -4  -4 28.4793 27.5901   6
 -30  34  -4-48.7890 44.6357   8
 -30  34  -1 59.7063 34.8629   8
 -30  34  -1 256.767 42.1014   4
 -30  34   2 1119.77 93.5867   4
 -30  34   2 634.675 92.5682   8
 -30  34   5 7.01356 32.1192   8
 -31  34  -5 105.922 52.2246   4
  34  -3  -5 127.616 29.9450   6
 -31  34  -5 6.30925 41.1754   8
  34  -3  -2 179.761 32.0497   6
   3  31   2 105.966 34.2601   8
 -31  34  -2 171.610 45.2319   4
 -31  34   1 757.042 73.9906   4
 -31  34   1 519.905 71.4281   8
 -31  34   4-34.4274 35.5441   4
 -31  34   4 15.5577 34.7422   8
 -32  34  -6 4.68730 47.1341   4
  34  -2  -6 26.1459 26.4817   6
 -32  34  -3 235.451 51.9167   4
  34  -2  -3 228.967 31.3884   6
   2  32   3 107.683 35.7183   8
   2  32   0 111.457 31.9708   8
 -32  34   0 48.8496 34.0485   8
 -32  34   3 243.059 43.3918   8
   2  32  -3 194.978 35.5611   8
  32 -34  -6-13.0001 34.3295   6
 -32  34   6-2.53144 23.6130   5
 -33  34  -4 46.7516 55.0839   4
  34  -1  -4 20.2561 26.0605   6
 -33  34  -4-6.61339 31.2552   8
   1  33   1 0.32885 31.0902   8
 -33  34  -1 3.96153 28.7032   8
 -33  34  -1-30.1153 40.0213   4
 -33  34   2 119.095 38.1468   4
 -33  34   2 69.6058 33.8021   8
   1  33  -2 39.1340 24.5123   8
 -33  34   5 112.901 31.7781   8
  33 -34  -5 52.7013 39.4866   6
 -34  34  -5 44.5821 58.3606   4
  34   0  -5 121.607 29.2756   6
   0  34   2 39.9546 30.9160   8
 -34  34  -2-10.4687 25.3648   8
 -34  34  -2 89.8052 46.4588   4
 -34  34   1 249.800 47.7001   8
   0  34  -1 328.058 45.1075   8
 -34  34   4 23.1216 34.2571   4
   0  34  -4-11.6069 24.2202   8
 -35  34   6 64.3933 22.9780   5
 -35  34   3 47.4846 36.0284   4
  -1  35  -3 43.1195 24.6002   8
  -1  35   0-12.9699 29.8896   8
 -35  34   0-8.30675 37.3543   4
  -1  35   3-29.7422 31.2198   8
 -35  34  -3 0.48914 49.7311   4
 -35  34  -6 57.1884 51.0245   4
 -35  33   4 122.385 34.6596   4
  -2  35  -4 54.9041 27.0580   8
 -35  33   1 384.226 48.9720   4
  -2  35  -1 218.677 40.6282   8
  -2  35   2 1.03978 32.9482   8
 -35  33  -2 89.3371 46.0127   4
 -35  33  -5 33.9672 61.0451   4
  33   2  -5 119.375 29.2789   6
  -2  35   5 39.0976 29.4030   8
  35 -32  -5 35.2096 35.8327   6
  -3  35  -5 4.08557 23.8242   8
 -35  32   2 485.681 52.0518   4
  -3  35  -2 273.640 45.4416   8
  -3  35   1 136.147 39.5152   8
 -35  32  -1 179.384 42.7200   4
  32   3  -4 365.985 42.8253   6
 -35  32  -4 271.202 66.5315   4
  -3  35   4 233.516 45.9083   8
  35 -31  -6 0.39112 31.1679   6
  -4  35  -6-27.4670 22.4301   8
 -35  31   6-11.1610 22.2654   5
 -35  31   3 45.2385 37.5448   4
  -4  35  -3 20.9372 31.3842   8
  -4  35   0 3.72912 34.4524   8
 -35  31   0-23.5957 36.7789   4
 -35  31  -3 74.6397 52.3881   4
  -4  35   3 57.3302 37.5327   8
  31   4  -6 117.350 29.4997   6
 -35  31  -6 47.6722 59.6511   4
  -4  35   6 69.7939 30.5056   8
 -35  30   4 107.324 37.4747   4
  35 -30  -4 73.3214 40.5886   6
  -5  35  -4 42.6268 30.9886   8
 -35  30   1 773.337 72.2766   4
  -5  35  -1 503.778 68.1081   8
 -35  30  -2 109.366 44.4396   4
  -5  35   2 106.210 40.6944   8
  30   5  -5 63.6002 27.9743   6
 -35  30  -5 22.7186 60.0901   4
  -5  35   5 43.6828 33.1547   8
  35 -29  -5-18.1009 39.4936   6
  -6  35  -2 34.5688 36.4321   8
  -6  35   1 0.40426 36.1469   8
 -35  29  -1 23.4746 37.7531   4
  29   6  -4 61.8013 28.0140   6
 -35  29  -4 12.7334 53.8569   4
  -6  35   4 32.6377 39.4736   8
  35 -28  -6 22.7799 33.0950   6
  -7  35  -3 13.2036 35.2296   8
  -7  35   0 317.943 48.3803   8
 -35  28  -3 390.135 60.3756   4
  -7  35   3 333.180 54.4383   8
  28   7  -6 65.0198 28.4481   6
 -35  28  -6 30.2110 52.9523   4
  -7  35   6 46.4895 34.1462   8
 -35  27   7 88.6478 23.6537   5
  35 -27  -4 102.020 42.9034   6
  -8  35  -1 50.7078 36.1468   8
  -8  35   2 5.19373 41.4286   8
  27   8  -5 294.320 38.4837   6
 -35  27  -5 217.955 58.8056   4
  -8  35   5 189.719 47.8184   8
  35 -26  -5 416.427 62.6919   6
 -35  26   5 514.946 59.7694   4
 -35  26   2 79.9584 37.0700   4
  -9  35  -2 93.2661 39.6664   8
  -9  35   1 12.5296 40.2984   8
  26   9  -4-1.54762 28.2099   6
  -9  35   4 30.6372 42.1953   8
 -35  26  -7 32.3548 38.6914   4
  -9  35   7 17.9626 31.9566   8
  35 -25  -6 14.6696 34.8236   6
 -35  25   3 37.3952 36.6763   4
 -10  35  -3 39.4568 40.3589   8
 -10  35   0 54.3207 36.3167   8
 -35  25   0 2.64064 33.4017   4
 -10  35   3 166.549 47.5917   8
 -10  35   6 459.024 60.6955   8
  35 -24  -7 17.4705 28.2641   6
 -35  24   7-24.6601 21.4597   5
 -35  24   4 14.3862 36.2766   4
  35 -24  -4 36.7180 39.1303   6
 -35  24   1 75.0826 34.2409   4
 -11  35  -1 50.3101 43.0844   8
 -35  24  -2 50.0451 36.6231   4
 -11  35   2 76.3026 43.4950   8
  24  11  -5 18.2717 28.5058   6
 -11  35   5 22.3270 43.4387   8
 -35  23   5 39.3185 34.7011   4
  35 -23  -5 87.9706 38.2787   6
 -35  23   2 65.3596 35.9496   4
 -12  35  -2-4.20864 39.3396   8
 -35  23  -1 48.5462 33.4007   4
 -12  35   1 54.0088 41.1535   8
 -35  23  -4 46.7140 40.5330   4
 -12  35   4 100.565 47.2327   8
 -12  35   7-5.91192 36.4114   8
  35 -22  -6 45.0842 35.6883   6
  35 -22  -3 178.663 41.2001   6
 -35  22   3 218.464 41.7840   4
 -13  35   0 12.5958 36.7574   8
 -35  22   0 21.7682 31.7719   4
 -35  22  -3-18.2102 36.0788   4
 -13  35   3 18.6001 47.9042   8
 -13  35   6 67.9894 42.0354   8
 -35  22  -6 74.7078 32.3487   4
  35 -21  -7 97.3398 32.2563   6
 -35  21   7 104.280 24.4678   5
  35 -21  -4 439.674 62.2436   6
 -35  21   4 516.712 60.2853   4
 -35  21   1 1170.06 99.9284   4
 -14  35  -1 649.589 103.690   8
 -35  21  -2 199.810 38.8848   4
 -14  35   2 115.171 48.4692   8
 -35  21  -5 31.5329 33.0740   4
 -14  35   5 67.8566 47.5146   8
 -35  20   5 43.9898 33.6208   4
  35 -20  -5 22.4091 36.4007   6
 -35  20   2-16.6151 34.9849   4
 -15  35  -2 40.0464 45.7579   8
 -35  20  -1 77.0801 34.0114   4
 -15  35   1 123.594 43.6851   8
 -35  20  -4 11.7042 33.6206   4
 -15  35   4-36.1515 49.5650   8
 -15  35   7-3.44009 38.9069   8
 -35  20  -7 11.0103 21.9555   4
  35 -19  -6 231.610 44.4208   6
  35 -19  -3 237.104 42.9099   6
 -35  19   3 315.129 44.8621   4
 -35  19   0 13.8533 32.3285   4
 -35  19  -3 13.3116 32.3072   4
 -16  35   6-24.0474 42.8922   8
 -35  19  -6 0.23498 24.2025   4
  35 -18  -7 18.1401 31.7053   6
 -35  18   7 3.46350 19.8239   5
 -35  18   4 49.3140 33.0988   4
  35 -18  -4 88.0170 35.9987   6
 -35  18   1 341.408 47.7085   4
 -35  18  -2 548.939 64.1831   4
 -35  18  -5 0.52304 26.9632   4
  35 -17  -5 57.5908 37.0242   6
 -35  17   2 67.6206 34.0329   4
 -35  17  -1 43.6062 33.3064   4
 -35  17  -4-0.87567 28.8699   4
 -35  17  -7 16.7123 17.4172   4
  35 -16  -6 31.5216 37.8048   6
 -35  16   6 96.3456 25.1010   5
  35 -16  -3 108.786 34.5310   6
 -35  16   3 153.545 35.8976   4
 -19  35   0 57.3855 38.5699   8
 -35  16   0 65.3946 33.2718   4
 -35  16  -3-14.2568 30.9704   4
 -19  35   3-1.63685 47.2936   8
 -19  35   6 262.997 44.1559   8
 -35  16  -6 59.1577 22.4930   4
  35 -15  -7 29.5256 30.5126   6
 -35  15   7 10.3554 18.0658   5
  35 -15  -4 420.432 60.4128   6
 -35  15   4 521.737 57.2160   4
 -35  15   1-19.0722 33.3487   4
 -20  35  -1-11.0174 41.8429   8
 -35  15  -2 28.2846 34.3135   4
 -20  35   2 16.4241 23.3202   4
 -20  35   2 3.47167 45.0749   8
 -35  15  -5 20.5359 23.2540   4
 -20  35   5-33.6340 47.4095   8
 -20  35   5 15.3515 20.4560   5
  35 -14  -5 85.7898 36.4721   6
 -35  14   2 1319.06 91.8251   4
 -21  35  -2 226.280 95.2303   8
 -35  14  -1 670.060 73.4176   4
 -21  35   1 576.028 75.3235   8
 -21  35   1 640.547 67.2843   4
 -35  14  -4 59.9308 29.5712   4
 -21  35   4 190.137 49.3676   8
 -21  35   7 55.3255 37.2943   8
 -35  14  -7-4.46002 14.0683   4
  35 -13  -6 53.6446 35.9940   6
 -35  13   6 104.205 23.8859   5
  35 -13  -3 95.5479 31.5078   6
 -35  13   3 102.968 33.1252   4
 -22  35  -3 83.7548 29.5476   4
 -22  35   0 132.397 28.9874   4
 -22  35   0 81.9699 36.7509   8
 -35  13   0 56.4445 36.1705   4
 -22  35   3 57.6576 28.0023   4
 -35  13  -3 18.3950 32.4161   4
 -22  35   3 51.9981 45.3378   8
 -22  35   6-11.8883 39.2774   8
 -35  13  -6 3.95511 16.7472   4
 -22  35   6-10.3983 20.5072   5
  35 -12  -7 112.412 32.7451   6
 -23  35  -4 5.57858 29.8955   4
 -35  12   4 36.1017 28.8668   4
  35 -12  -4 41.3510 33.4080   6
 -35  12   1 40.5724 35.1868   4
 -23  35  -1 49.2565 28.3067   4
 -23  35  -1-17.4825 42.1010   8
 -35  12  -2 272.282 53.4184   4
 -23  35   2 357.656 56.2475   8
 -23  35   2 391.103 45.7562   4
 -35  12  -5-25.7213 21.2608   4
 -23  35   5 2.44479 43.7091   8
 -23  35   5 46.9484 23.1582   5
  35 -11  -5 19.0439 32.6112   6
 -35  11   2 63.8032 31.7674   4
 -24  35  -2-15.1610 44.5909   8
 -24  35  -2 71.2431 31.6903   4
 -24  35   1 634.566 68.9097   4
 -35  11  -1 737.046 76.6292   4
 -24  35   1 516.376 74.4396   8
 -35  11  -4 204.038 38.8202   4
 -24  35   4 477.367 54.7480   8
 -24  35   7 295.279 36.2906   8
 -24  35   7 272.623 22.9741   5
  35 -10  -6 73.0377 32.9333   6
 -35  10   3 256.629 34.5396   4
  35 -10  -3 223.704 34.8605   6
 -25  35   0 176.407 35.1776   4
 -25  35   0 107.876 37.6807   8
 -35  10   0 154.191 41.5273   4
 -35  10  -3-30.4038 38.1941   4
 -25  35   3 0.30157 30.9668   4
 -25  35   3-12.8504 40.1937   8
 -35  10  -6-1.52754 15.3690   4
 -25  35   6 58.6514 36.0723   8
 -25  35   6 40.5072 23.1720   5
 -26  35  -4 61.7435 36.4941   4
  35  -9  -4 41.4324 29.5905   6
 -35   9   1 30.8296 33.9128   4
 -26  35  -1-5.95258 38.3797   8
 -26  35  -1 33.0174 32.8084   4
 -35   9  -2 187.447 53.6455   4
 -26  35   2 231.267 38.1006   4
 -26  35   2 99.0646 43.9192   8
 -35   9  -5-0.75458 20.5763   4
 -26  35   5-14.5975 38.5971   8
 -27  35  -5 17.1548 36.0882   4
  35  -8  -5 18.8538 30.3141   6
 -27  35  -2 51.6261 46.7637   8
 -27  35  -2 301.228 43.3218   4
 -27  35   1 6.18774 33.5050   4
 -27  35   1 0.40937 36.4325   8
 -35   8  -1-26.8120 47.4975   4
 -27  35   4-30.6375 32.9928   4
 -35   8  -4 16.2912 30.3209   4
 -27  35   4 13.7244 38.1232   8
 -27  35   7 46.0748 29.0694   8
  35  -7  -6 43.9151 30.1499   6
  35  -7  -3 64.7510 28.0845   6
 -28  35  -3 23.2752 47.2134   8
 -28  35  -3 70.8020 40.1524   4
 -28  35   0 343.468 42.0487   4
 -28  35   0 85.7363 40.2509   8
 -35   7  -3 169.014 55.2960   4
 -28  35   3 310.449 41.9304   4
 -28  35   3 177.940 45.3428   8
 -28  35   6 70.5922 32.5798   8
 -28  35   6 27.9730 24.3803   5
  35  -6  -4 605.990 50.6965   6
 -29  35  -4 397.584 59.9886   4
 -29  35  -1 27.0990 34.1913   8
 -29  35  -1 156.346 38.2257   4
 -29  35   2 318.977 44.7246   4
 -29  35   2 185.333 47.0540   8
 -29  35   5 73.3512 35.0753   8
 -30  35  -5-2.78131 42.4319   4
  35  -5  -5 6.65775 28.2351   6
 -30  35  -5-12.1795 48.4173   8
  35  -5  -2 138.182 30.7618   6
 -30  35  -2 146.035 43.6330   4
 -30  35   1 41.8545 36.2267   4
 -30  35   1 22.7233 35.6365   8
 -30  35   4 150.570 36.3084   4
 -30  35   4 123.980 38.8056   8
 -31  35  -6 109.093 44.6190   4
  35  -4  -6 241.150 34.4955   6
  35  -4  -3-14.6975 25.6368   6
 -31  35  -3 2.98352 39.2766   8
 -31  35  -3-22.4830 43.7484   4
 -31  35   0 11.1531 35.0565   8
 -31  35   0 50.5820 36.9914   4
 -31  35   3 17.1492 35.1889   4
 -31  35   3-2.67704 35.6469   8
 -31  35   6 161.303 34.2561   8
  31 -35  -6 188.577 40.7512   6
 -31  35   6 199.725 31.5163   5
 -32  35  -4-4.22303 48.5192   4
  35  -3  -4 8.62187 26.4413   6
 -32  35  -4 6.99311 37.7814   8
 -32  35  -1 0.32564 30.4185   8
 -32  35  -1 33.4371 38.5192   4
 -32  35   2 400.284 49.1358   4
 -32  35   2 237.559 46.0181   8
 -32  35   5 44.7977 30.7309   8
  32 -35  -5 58.5894 38.2854   6
 -33  35  -5 162.550 55.5082   4
  35  -2  -5 230.556 34.9134   6
 -33  35  -2-18.1567 28.6482   8
 -33  35  -2 33.0682 43.5357   4
 -33  35   1 8.24778 37.3446   4
 -33  35   1-1.80434 33.4809   8
 -33  35   4 16.3840 32.9120   4
 -33  35   4-21.3261 31.9419   8
  33 -35  -4 32.3923 39.9102   6
  35  -1  -6 35.3710 26.0060   6
 -34  35  -3-11.7207 26.2259   8
 -34  35  -3 73.7686 49.7860   4
   1  34   0 4.72291 28.5788   8
 -34  35   0-35.5619 30.4481   8
 -34  35   0 12.4736 37.7009   4
 -34  35   3 59.5489 36.2600   4
 -34  35   3-6.33110 32.0355   8
 -34  35   6 29.9680 21.3364   5
 -35  35  -4 320.778 63.3197   4
 -35  35  -1 535.354 48.7977   4
   0  35   1 305.210 38.6270   8
   0  35  -2 336.060 43.9256   8
 -35  35   2 258.765 48.2247   8
 -36  35   4 35.2612 31.5878   4
 -36  35   1 227.474 42.3040   4
  -1  36  -1 152.990 33.3784   8
  -1  36   2 3.07678 29.7901   8
 -36  35  -2-0.85134 44.2168   4
 -36  35  -5 87.9900 52.7900   4
 -36  34   2-0.35800 35.9837   4
  -2  36  -2-3.87749 24.5990   8
  -2  36   1 22.4577 32.9466   8
 -36  34  -1 124.187 40.9526   4
 -36  34  -4 17.3045 54.9675   4
  -2  36   4 9.72005 28.5337   8
 -36  33   6 18.0206 20.7568   5
 -36  33   3 34.5057 35.6818   4
  -3  36  -3 8.88039 26.8422   8
  -3  36   0 159.994 36.2480   8
 -36  33   0 180.928 42.4753   4
  -3  36   3 14.4777 32.3365   8
 -36  33  -3 55.2553 50.9479   4
 -36  33  -6 103.682 55.9332   4
 -36  32   4 0.33648 33.2815   4
  -4  36  -4 4.79032 27.2162   8
 -36  32   1 27.4708 38.0922   4
  -4  36  -1 24.4582 29.8915   8
  -4  36   2 51.7857 35.3970   8
 -36  32  -2 50.7118 44.8236   4
 -36  32  -5-55.5601 60.5519   4
  -4  36   5 34.5661 29.2254   8
  36 -31  -5 122.305 36.0171   6
  -5  36  -5 20.1360 25.5131   8
 -36  31   2 623.187 58.8790   4
  -5  36  -2 325.416 55.1663   8
  -5  36   1 216.983 46.5198   8
 -36  31  -1 310.265 48.2019   4
 -36  31  -4 299.317 60.1406   4
  -5  36   4 171.196 42.1547   8
  36 -30  -6 48.8631 29.2044   6
  -6  36  -6-18.8046 23.0216   8
  -6  36  -3 195.809 39.4502   8
  -6  36   0-20.4158 36.0995   8
 -36  30   0-1.42317 35.3693   4
 -36  30  -3-16.0300 48.8365   4
  -6  36   3 2.47063 37.1500   8
 -36  30  -6-23.0462 52.7120   4
  -6  36   6 18.4187 29.9240   8
  -7  36  -4 120.006 35.4413   8
  -7  36  -1 363.754 50.3030   8
 -36  29  -2 15.5229 41.1498   4
  -7  36   2-17.3971 40.5640   8
  29   7  -5 25.2743 28.3950   6
 -36  29  -5 23.2762 53.8331   4
  -7  36   5 5.32816 33.9914   8
  36 -28  -5 10.0262 36.1609   6
  -8  36  -2 112.660 41.0330   8
  -8  36   1 29.6451 38.1494   8
 -36  28  -4 142.432 51.4301   4
  -8  36   4 118.553 42.8967   8
  36 -27  -6 6.28509 30.8234   6
 -36  27   3 24.9895 36.1662   4
  -9  36  -3 25.9882 37.1938   8
  -9  36   0 7.58986 36.0483   8
  -9  36   3 21.7913 40.8637   8
 -36  27  -6-27.9361 43.9530   4
  -9  36   6 35.0700 34.2609   8
 -36  26   7 6.76973 19.1258   5
 -36  26   4-7.13796 34.9652   4
  36 -26  -4-6.72302 37.4273   6
 -36  26   1 162.778 37.2260   4
 -10  36  -1 76.1747 40.9095   8
 -10  36   2-3.42773 43.2961   8
 -10  36   5 24.6128 40.2734   8
 -36  25   5 126.291 36.1456   4
  36 -25  -5 103.160 37.9872   6
 -36  25   2 184.248 38.1580   4
 -11  36  -2 2.75156 42.2240   8
 -11  36   1 103.793 44.2725   8
 -36  25  -1 140.096 37.7037   4
 -11  36   4 58.7012 43.8669   8
 -11  36   7 55.6424 32.2443   8
  36 -24  -6 239.050 41.6028   6
 -36  24   3 100.819 37.8147   4
 -12  36  -3 28.3397 42.3968   8
 -36  24   0 687.042 70.4130   4
 -12  36   0 545.755 72.7877   8
 -36  24  -3 228.299 44.7730   4
 -12  36   3 197.867 50.5196   8
 -12  36   6 25.3324 38.0977   8
  36 -23  -7 87.4242 29.7797   6
 -36  23   7 133.573 23.5998   5
 -36  23   4 44.1833 35.0006   4
  36 -23  -4 24.2084 36.3873   6
 -36  23   1 135.757 34.9873   4
 -13  36  -1 53.6800 43.5044   8
 -36  23  -2 114.731 37.0640   4
 -13  36   2 141.877 48.0569   8
 -36  23  -5 255.153 50.2888   4
 -13  36   5 505.172 60.0347   8
 -36  22   5 111.028 34.1206   4
  36 -22  -5 65.5324 38.1995   6
 -36  22   2 378.099 43.3301   4
 -14  36  -2 24.2316 47.6771   8
 -14  36   1 239.655 51.7273   8
 -36  22  -1 268.914 42.6319   4
 -36  22  -4 36.0802 34.5455   4
 -14  36   4-29.2739 47.1080   8
 -36  22  -7 31.2111 22.8204   4
 -14  36   7 2.68192 35.1445   8
  36 -21  -6 100.951 35.6920   6
 -36  21   3 26.2677 35.1663   4
 -15  36  -3-7.83559 46.7555   8
 -15  36   0 128.080 43.9339   8
 -36  21   0 254.171 39.1107   4
 -36  21  -3 181.591 40.3948   4
 -15  36   3 263.259 55.2305   8
 -36  21  -6 116.080 29.9652   4
  36 -20  -7 14.2434 28.1251   6
 -36  20   7 39.4465 18.9868   5
 -36  20   4 60.2416 33.8621   4
  36 -20  -4 42.2546 36.0312   6
 -36  20   1 74.4622 33.8464   4
 -16  36  -1 61.3255 43.3553   8
 -36  20  -2 136.171 37.0938   4
 -16  36   2 148.375 49.1989   8
 -36  20  -5 22.7898 28.7296   4
 -16  36   5 66.8286 48.0411   8
  36 -19  -5 41.2292 36.2946   6
 -36  19   2 83.0362 35.7839   4
 -36  19  -1 97.5458 35.2214   4
 -36  19  -4 24.2328 29.4105   4
 -36  19  -7-4.90177 17.5063   4
  36 -18  -6 77.4874 35.4239   6
 -36  18   6 48.7515 23.5651   5
 -36  18   3 440.855 56.1619   4
 -36  18   0 234.929 41.4916   4
 -36  18  -3-18.1745 30.5959   4
 -36  18  -6-11.8979 20.7082   4
  36 -17  -7 46.1471 28.7997   6
  36 -17  -4 339.662 55.0199   6
 -36  17   4 478.963 53.0132   4
 -36  17   1 597.737 68.6629   4
 -36  17  -2 157.133 38.1870   4
 -36  17  -5 1.82275 22.9293   4
  36 -16  -5 181.322 41.1255   6
 -36  16   2-7.86999 33.7301   4
 -20  36  -2-10.3007 45.0312   8
 -20  36   1 45.9043 44.7506   8
 -36  16  -1 42.0886 36.5503   4
 -36  16  -4-45.6427 26.9636   4
 -20  36   4-8.06075 46.3034   8
 -20  36   4 7.01410 18.3302   5
 -36  16  -7 5.10886 13.9434   4
 -20  36   7 1.95959 35.0684   8
  36 -15  -6 88.6937 34.5324   6
 -36  15   6 54.6418 23.0035   5
  36 -15  -3 27.0588 30.2810   6
 -36  15   3 46.3893 32.6906   4
 -21  36  -3 26.6147 51.2093   8
 -21  36   0 76.7301 41.2155   8
 -36  15   0 180.247 38.5191   4
 -36  15  -3 16.6847 30.7791   4
 -21  36   3 1.03909 45.9495   8
 -36  15  -6-1.11561 17.0502   4
 -21  36   6 28.8046 38.1306   8
  36 -14  -7 8.25395 27.7966   6
 -36  14   4 4.09728 30.2078   4
  36 -14  -4-0.43290 33.4098   6
 -22  36  -1 35.3600 25.3515   4
 -36  14   1 15.3951 34.8905   4
 -22  36  -1 49.5242 44.5479   8
 -36  14  -2 317.133 51.5839   4
 -22  36   2 375.853 58.0642   8
 -22  36   2 354.489 43.5594   4
 -36  14  -5 36.8450 21.6053   4
 -22  36   5 68.2312 44.1622   8
 -22  36   5 73.6646 22.6633   5
  36 -13  -5-7.14292 34.1765   6
 -36  13   2 93.2003 34.4519   4
 -23  36  -2 16.3740 45.6953   8
 -23  36  -2 81.5407 27.5218   4
 -23  36   1 247.501 50.2643   8
 -36  13  -1 263.546 50.5819   4
 -23  36   1 290.012 39.2982   4
 -36  13  -4 13.2296 25.8169   4
 -23  36   4 30.3167 42.5386   8
 -23  36   7-7.77684 32.3934   8
  36 -12  -6-12.5849 31.5811   6
  36 -12  -3 270.428 38.7085   6
 -24  36  -3 199.769 38.8936   4
 -24  36   0 12.5862 29.2957   4
 -24  36   0 17.0295 36.2861   8
 -36  12   0 11.3409 37.7622   4
 -24  36   3 44.4066 29.8323   4
 -36  12  -3 23.1157 33.7398   4
 -24  36   3 6.66454 41.6958   8
 -24  36   6 118.463 36.8446   8
 -24  36   6 91.4782 21.4981   5
  36 -11  -7-37.3209 26.2740   6
  36 -11  -4 73.1369 30.8270   6
 -25  36  -4 44.8952 30.2400   4
 -36  11   1 41.7665 36.1214   4
 -25  36  -1 31.1547 30.3154   4
 -25  36  -1 2.25336 40.0011   8
 -36  11  -2 105.814 46.7625   4
 -25  36   2 176.682 34.8784   4
 -25  36   2 105.828 44.8769   8
 -36  11  -5-9.45947 18.9918   4
 -25  36   5 11.3614 39.9154   8
 -25  36   5 16.9511 22.8040   5
  36 -10  -5 235.287 40.1703   6
 -36  10   2 70.1806 32.9560   4
 -26  36  -2 1.50326 45.2620   8
 -26  36  -2 44.8014 32.9942   4
 -26  36   1 292.061 42.4389   4
 -26  36   1 237.992 48.0840   8
 -36  10  -1 273.244 55.2382   4
 -36  10  -4 313.016 53.8991   4
 -26  36   4 878.262 65.8444   8
  36  -9  -6 16.0853 28.3062   6
  36  -9  -3 553.867 48.9698   6
 -27  36  -3 390.749 52.2198   4
 -27  36   0 126.706 36.7312   4
 -36   9   0 154.936 44.6113   4
 -27  36   0 73.4890 37.2990   8
 -36   9  -3 138.322 46.1387   4
 -27  36   3 201.320 36.8997   4
 -27  36   3 159.622 42.6905   8
 -36   9  -6-9.89573 13.2445   4
 -27  36   6 0.34896 32.6440   8
 -27  36   6-9.03074 21.2259   5
 -28  36  -4 44.3855 36.1232   4
  36  -8  -4-1.10455 27.6898   6
 -28  36  -4-18.8534 53.7805   8
 -28  36  -1 11.0669 36.0425   8
 -28  36  -1 60.4591 34.1234   4
 -28  36   2 89.1275 36.6912   4
 -28  36   2 101.309 42.1441   8
 -36   8  -2 156.641 59.2059   4
 -36   8  -5 25.6152 19.7379   4
 -28  36   5 99.5641 35.5137   8
 -29  36  -5 45.4199 36.8395   4
  36  -7  -5 42.4653 28.7618   6
 -29  36  -5 3.44574 55.3325   8
 -29  36  -2-0.45859 43.3482   8
 -29  36  -2 118.905 38.4698   4
 -29  36   1 24.8865 34.8459   4
 -29  36   1 6.40603 36.2549   8
 -29  36   4 280.994 42.1491   4
 -29  36   4 224.878 45.3490   8
  36  -6  -6 6.34191 26.5575   6
 -30  36  -6 11.8811 43.7221   8
  36  -6  -3-24.9481 26.8509   6
 -30  36  -3-0.95972 43.5265   8
 -30  36  -3-8.04352 39.7152   4
 -30  36   0 132.580 38.5157   4
 -30  36   0 53.9481 38.0040   8
 -30  36   3 0.66846 33.2646   4
 -30  36   3 3.16394 35.7067   8
 -30  36   6 111.419 30.9017   8
 -30  36   6 97.3909 25.0174   5
  36  -5  -4 39.7450 26.6381   6
 -31  36  -4-11.0661 43.9200   8
 -31  36  -4-0.78190 41.9835   4
 -31  36  -1 15.6645 32.7388   8
 -31  36  -1 9.81158 37.4490   4
 -31  36   2 27.1669 36.5004   4
 -31  36   2 34.0669 35.7152   8
 -31  36   5 6.87073 29.5868   8
 -32  36  -5 4.14653 41.5423   4
  36  -4  -5 28.8312 26.1099   6
 -32  36  -5 8.73001 37.6538   8
 -32  36  -2-9.64426 32.6941   8
 -32  36  -2 147.467 41.4515   4
 -32  36   1 1.80194 36.9534   4
 -32  36   1 54.7449 36.1830   8
 -32  36   4 70.4301 32.8984   4
 -32  36   4 31.3063 32.4396   8
 -33  36  -3-47.9735 33.4620   8
 -33  36  -3 125.610 46.1778   4
 -33  36   0 270.385 42.8453   4
 -33  36   0 62.3652 34.9136   8
 -33  36   3 132.856 35.5066   4
 -33  36   3 77.9208 34.4883   8
 -33  36   6 5.54982 20.0671   5
 -34  36  -4 21.7040 35.2520   8
 -34  36  -4 252.943 54.4125   4
 -34  36  -1-28.3887 30.9759   8
 -34  36  -1 43.3972 39.4488   4
 -34  36   2-5.75256 37.0041   4
 -34  36   2-21.5639 31.7938   8
 -35  36  -5 5.50742 46.5893   4
 -35  36  -2-8.57219 26.5309   8
 -35  36  -2 89.4153 43.9726   4
 -35  36   1-14.8278 36.1031   4
 -35  36   1-7.82551 29.4322   8
 -35  36   4 30.5316 31.6944   4
 -36  36  -3 80.2290 49.5817   4
 -36  36   0 119.996 41.8820   4
 -36  36   3 277.393 43.8949   4
 -37  36   2 64.6200 36.3758   4
  -1  37   1 10.0314 26.8304   8
 -37  36  -1 34.0438 40.6472   4
 -37  36  -4 4.73335 51.0673   4
 -37  35   3 381.015 40.7795   4
  -2  37  -3 131.218 29.6850   8
  -2  37   0-15.8822 29.3866   8
 -37  35   0 19.7297 38.6979   4
  -2  37   3 124.747 33.3478   8
 -37  35  -3 249.463 54.5141   4
 -37  34   4 113.922 32.6173   4
  -3  37  -4 46.0282 23.4631   8
 -37  34   1 475.137 54.1192   4
  -3  37  -1 309.943 48.5978   8
  -3  37   2 183.511 41.5497   8
 -37  34  -2 405.952 53.9977   4
 -37  34  -5 20.1808 55.5305   4
  -4  37  -5-10.3383 22.3279   8
 -37  33   2 112.920 36.7574   4
  -4  37  -2 50.2605 27.6860   8
  -4  37   1 32.5269 35.2155   8
 -37  33  -1 36.1193 38.8453   4
 -37  33  -4 143.980 56.2808   4
  -4  37   4 66.8160 31.7280   8
 -37  32   3 332.513 41.3357   4
  -5  37  -3 81.3070 34.6640   8
  -5  37   0 132.215 36.7810   8
 -37  32   0 147.943 39.4328   4
  -5  37   3-8.36086 33.9074   8
 -37  32  -3-31.8579 49.7009   4
 -37  32  -6-20.0295 51.4835   4
  -6  37  -4-15.9037 28.5320   8
 -37  31   1 288.926 45.2599   4
  -6  37  -1 192.358 39.7521   8
  -6  37   2 227.063 47.8120   8
 -37  31  -2 347.379 53.1943   4
 -37  31  -5 204.021 61.2698   4
  -6  37   5 234.801 38.7976   8
  -7  37  -5-23.9707 26.3517   8
  -7  37  -2 148.343 37.7989   8
  -7  37   1-4.97859 37.5320   8
 -37  30  -1-6.35987 37.7124   4
 -37  30  -4-28.2716 51.2112   4
  -7  37   4 5.90863 35.5260   8
  -8  37  -6 3.12853 23.5662   8
 -37  29   6 30.6124 21.8300   5
  -8  37  -3 16.7013 35.4411   8
  -8  37   0 115.985 40.4783   8
 -37  29  -3 0.45202 45.9764   4
  -8  37   3 23.8129 38.1804   8
 -37  29  -6 1.64524 43.9736   4
  -8  37   6-20.5953 30.3611   8
 -37  28   4 12.8207 32.8025   4
  -9  37  -4-29.6294 33.5386   8
  -9  37  -1 83.1297 36.4398   8
  -9  37   2 79.1178 43.7697   8
 -37  28  -5 0.43559 44.8762   4
  -9  37   5-70.3665 36.8923   8
  37 -27  -5 386.322 40.2654   6
 -10  37  -5-19.7098 35.1616   8
 -37  27   2 141.288 37.0801   4
 -10  37  -2 31.4891 42.2770   8
 -10  37   1 182.074 45.0392   8
 -10  37   4 70.2837 40.8167   8
  37 -26  -6 6.18920 29.3393   6
 -37  26   3 94.6452 36.6408   4
 -11  37  -3-8.21816 39.1067   8
 -11  37   0-36.9967 37.6181   8
 -37  26   0 57.3314 33.7834   4
 -11  37   3 61.2262 42.1754   8
 -11  37   6 80.9831 35.1810   8
 -37  25   4 112.926 35.4737   4
 -12  37  -4 35.6519 40.6851   8
 -37  25   1 240.195 40.4868   4
 -12  37  -1 166.388 45.9239   8
 -37  25  -2 50.7816 37.4043   4
 -12  37   2 5.07217 44.8288   8
 -12  37   5 35.5492 40.3794   8
  37 -24  -5-10.9454 34.1420   6
 -37  24   2 79.5888 35.3350   4
 -13  37  -2 17.8511 43.4709   8
 -13  37   1 132.970 46.4645   8
 -37  24  -1 122.281 37.2249   4
 -37  24  -4 79.8917 37.5190   4
 -13  37   4 122.184 45.9868   8
 -37  24  -7 18.4359 24.1500   4
 -13  37   7 159.986 33.5183   8
  37 -23  -6 52.3289 31.4416   6
 -37  23   3 128.191 36.8862   4
 -14  37  -3 1.45698 44.4734   8
 -14  37   0 3.47642 38.2468   8
 -37  23   0-46.2716 32.4747   4
 -37  23  -3 90.1757 35.8869   4
 -14  37   3 107.639 47.1584   8
 -37  23  -6 46.3077 27.3017   4
 -14  37   6 93.2468 38.1230   8
 -37  22   4 54.1865 33.5799   4
  37 -22  -4 42.3667 34.7575   6
 -37  22   1 69.6476 34.0393   4
 -15  37  -1 32.1683 43.6999   8
 -37  22  -2-11.3314 35.3925   4
 -15  37   2 22.7865 45.2074   8
 -37  22  -5-20.9007 28.0751   4
 -15  37   5-54.8672 44.9805   8
  37 -21  -5 136.187 38.5191   6
 -37  21   2 30.5157 34.3017   4
 -16  37  -2 7.60089 44.6107   8
 -16  37   1 59.6148 45.7275   8
 -37  21  -1 92.3035 34.8380   4
 -37  21  -4 9.91733 29.9557   4
 -16  37   4 29.5552 47.2618   8
 -37  21  -7-7.32443 17.3468   4
 -16  37   7 25.7831 33.5753   8
  37 -20  -6 155.697 36.0178   6
 -37  20   6 118.623 26.6431   5
 -37  20   3 214.056 41.8484   4
 -37  20   0 1390.48 139.235   4
 -37  20  -3 91.3018 33.3451   4
 -37  20  -6-10.1371 20.9556   4
 -17  37   6-14.5977 38.7068   8
 -37  19   4 53.4768 32.4522   4
  37 -19  -4-0.90619 35.3561   6
 -37  19   1 38.4702 34.4854   4
 -37  19  -2-9.01458 33.7485   4
 -37  19  -5 69.6244 24.2218   4
  37 -18  -5 93.4452 37.2872   6
 -37  18   2 68.4022 35.3671   4
 -37  18  -1 2.71851 34.4223   4
 -37  18  -4 15.6065 26.3157   4
 -37  18  -7 14.9070 13.7050   4
  37 -17  -6 15.8962 31.7739   6
 -37  17   6 0.95461 21.4371   5
 -37  17   3 19.4221 33.4226   4
 -20  37  -3-24.0465 49.5940   8
 -20  37   0 122.367 43.3220   8
 -37  17   0 231.019 40.0132   4
 -37  17  -3 162.318 36.2274   4
 -20  37   3 282.374 53.5302   8
 -37  17  -6 7.82428 17.0873   4
 -20  37   6 28.7526 38.2369   8
 -37  16   4 9.73945 31.3382   4
  37 -16  -4 42.4779 33.4275   6
 -37  16   1 16.2172 34.7315   4
 -21  37  -1 25.6816 44.7087   8
 -37  16  -2 85.7846 38.3703   4
 -21  37   2 167.827 48.3156   8
 -37  16  -5-3.42395 19.7761   4
 -21  37   5 21.1159 43.3187   8
  37 -15  -5 107.723 35.9258   6
 -37  15   2-4.34317 32.5431   4
 -22  37  -2-0.52924 48.0362   8
 -22  37   1 154.591 46.0379   8
 -37  15  -1 145.701 43.4624   4
 -37  15  -4 9.87504 25.0113   4
 -22  37   4-66.8264 45.3533   8
 -22  37   7 94.4441 33.9652   8
  37 -14  -6 9.94975 30.1091   6
 -23  37  -3-21.1555 62.8306   8
 -37  14   3 550.750 50.7828   4
 -23  37   0 18.1055 25.3785   4
 -23  37   0-5.52355 37.5392   8
 -37  14   0 9.50708 37.9192   4
 -37  14  -3 0.29853 30.9115   4
 -23  37   3 4.40456 43.3048   8
 -37  14  -6 19.9138 14.4308   4
 -23  37   6 80.6535 35.5129   8
  37 -13  -4 171.171 33.6328   6
 -24  37  -4-45.7686 58.0359   8
 -37  13   1 74.5717 38.8091   4
 -24  37  -1 105.518 29.3625   4
 -24  37  -1 16.1678 41.9254   8
 -37  13  -2 349.625 57.6742   4
 -24  37   2 352.981 61.4235   8
 -24  37   2 464.673 49.6613   4
 -24  37   5 317.290 45.5539   8
 -24  37   5 245.283 28.3745   5
  37 -12  -5 138.160 34.1034   6
 -37  12   2 419.593 44.2501   4
 -25  37  -2 224.628 38.2543   4
 -25  37   1 50.7090 29.6128   4
 -25  37   1 48.7242 40.7427   8
 -37  12  -1 56.7619 44.4597   4
 -37  12  -4 4.57990 24.6613   4
 -25  37   4-20.7568 40.3732   8
  37 -11  -6 53.2911 28.5831   6
 -26  37  -6 14.4391 55.6823   8
 -26  37  -3-22.8676 52.2659   8
 -26  37  -3 89.9057 32.7371   4
 -26  37   0 12.5918 31.4502   4
 -37  11   0 25.9771 42.3062   4
 -26  37   0-8.29927 37.0116   8
 -37  11  -3 18.2904 36.3342   4
 -26  37   3-15.1214 29.7279   4
 -26  37   3-12.8016 38.6350   8
 -37  11  -6-2.07039 12.8345   4
 -26  37   6 30.7119 19.2509   5
  37 -10  -4 4.01987 27.8641   6
 -27  37  -4 43.0858 56.3009   8
 -27  37  -4-21.5316 30.2772   4
 -37  10   1 68.8430 38.3110   4
 -27  37  -1 79.1234 33.2775   4
 -27  37  -1 23.9637 38.8804   8
 -27  37   2 27.7689 33.1627   4
 -27  37   2 36.2378 41.3014   8
 -37  10  -2 48.5113 49.1479   4
 -37  10  -5 17.7465 17.8687   4
 -27  37   5 31.3165 35.9985   8
 -27  37   5 48.2006 23.6558   5
  37  -9  -5 7.24183 28.4898   6
 -28  37  -5 19.3428 56.8255   8
 -28  37  -2-17.2455 44.6258   8
 -28  37  -2 14.5547 32.7424   4
 -28  37   1 134.842 35.0218   4
 -28  37   1 54.3739 38.7794   8
 -37   9  -1 98.7865 52.5791   4
 -37   9  -4 58.0205 27.9479   4
 -28  37   4 57.1628 37.8388   8
  37  -8  -6 11.3903 25.7784   6
 -29  37  -6-6.86645 49.6824   8
  37  -8  -3 146.052 30.2108   6
 -29  37  -3 119.034 38.4562   4
 -29  37   0 25.8945 35.5042   4
 -29  37   0 7.83787 37.5310   8
 -29  37   3 19.2492 32.3938   4
 -29  37   3-9.21858 36.7391   8
 -29  37   6 32.1977 29.1169   8
 -29  37   6 62.8904 21.7020   5
  37  -7  -4 34.7884 27.3370   6
 -30  37  -4 5.73443 49.8148   8
 -30  37  -4 55.5159 36.5534   4
 -30  37  -1 10.1296 34.7300   8
 -30  37  -1 23.7313 35.7817   4
 -30  37   2 3.70912 34.1840   4
 -30  37   2 38.1254 36.5658   8
 -30  37   5 50.9476 30.5399   8
 -31  37  -5-39.4079 46.9791   8
 -31  37  -5 78.9142 37.5589   4
 -31  37  -2 49.5410 36.6470   8
 -31  37  -2 68.5445 37.3472   4
 -31  37   1 680.191 63.8290   4
 -31  37   1 364.124 63.5862   8
 -31  37   4 129.795 36.2411   8
 -32  37  -3-20.7894 38.7470   8
 -32  37  -3 20.9513 41.9218   4
 -32  37   0 250.480 41.8593   4
 -32  37   0 51.4660 36.9220   8
 -32  37   3 216.848 38.8339   4
 -32  37   3 146.774 37.8291   8
  37  -4  -4 25.5237 27.7984   6
 -33  37  -4 1.07227 35.3714   8
 -33  37  -4-27.3777 42.7192   4
 -33  37  -1 1.75228 33.8862   8
 -33  37  -1 27.5578 38.1029   4
 -33  37   2 321.167 43.2107   4
 -33  37   2 135.679 39.3690   8
 -33  37   5 37.2088 26.7379   8
  33 -37  -5-31.6761 35.4044   6
  37  -3  -5-2.39236 27.5751   6
 -34  37  -5 23.2024 39.3414   4
 -34  37  -2 0.29971 29.3396   8
 -34  37  -2 36.2584 39.6627   4
 -34  37   1 25.0982 35.9161   4
 -34  37   1 43.5953 32.4680   8
 -34  37   4 65.1217 32.0149   4
 -34  37   4 56.2834 28.3377   8
 -35  37  -3 40.0322 43.2890   4
 -35  37   0 168.631 41.1336   4
 -35  37   0 63.6771 32.6458   8
 -35  37   3 85.9323 32.8293   4
 -35  37   3-11.6399 29.3008   8
 -36  37  -4 24.2515 46.8800   4
 -36  37  -1 0.38377 39.5038   4
 -36  37   2 156.839 39.5442   4
 -37  37  -2 81.7009 43.2766   4
 -37  37   1 30.1943 35.8194   4
 -37  37   4 19.5023 27.7906   4
 -38  37   3 255.804 40.9440   4
 -38  37   0 192.265 43.9982   4
 -38  37  -3 314.118 57.0208   4
 -38  36   4 20.2525 28.6118   4
 -38  36   1 14.4845 35.1071   4
  -2  38  -1-30.7145 26.1334   8
 -38  36  -2 71.3131 43.9931   4
 -38  35   2 50.6496 35.5984   4
  -3  38  -2 48.1990 26.1045   8
  -3  38   1-5.46017 29.4041   8
 -38  35  -1 13.4908 38.4432   4
 -38  35  -4 80.3891 52.0244   4
 -38  34   3-11.1583 32.9277   4
  -4  38  -3 22.3731 23.0939   8
  -4  38   0 67.4014 33.3622   8
 -38  34   0 151.198 39.8584   4
  -4  38   3 89.7842 33.2440   8
 -38  34  -3 205.536 52.6319   4
 -38  33   4 16.1317 29.9932   4
  -5  38  -4-2.19180 24.4672   8
 -38  33   1 39.9643 36.7926   4
  -5  38  -1 47.6237 31.8182   8
  -5  38   2 12.8202 32.1476   8
 -38  33  -2 51.8491 43.4748   4
 -38  33  -5 13.8803 54.1887   4
  -5  38   5 19.0126 25.7783   8
  -6  38  -5 21.8252 23.3823   8
 -38  32   2 305.014 41.9214   4
  -6  38  -2 136.586 35.3779   8
  -6  38   1-12.2273 35.5304   8
 -38  32  -1 0.74811 37.6760   4
 -38  32  -4 77.8199 52.2894   4
  -6  38   4 21.8814 31.6559   8
  -7  38  -3 0.33790 31.1108   8
  -7  38   0 54.8055 37.2352   8
 -38  31   0 100.568 37.1772   4
  -7  38   3 29.4388 36.5544   8
 -38  31  -3 120.477 46.3506   4
 -38  31  -6 6.98380 44.9530   4
  -8  38  -4 44.4328 31.2460   8
  -8  38  -1 140.362 37.3067   8
  -8  38   2 335.224 54.9869   8
 -38  30  -2 370.883 55.9231   4
 -38  30  -5 27.2720 47.8392   4
  -8  38   5 57.1303 31.2170   8
  -9  38  -5 5.93195 26.9468   8
  -9  38  -2 10.1595 36.1998   8
  -9  38   1 39.2350 40.1787   8
 -38  29  -4 37.5266 44.2388   4
  -9  38   4 30.8890 36.7700   8
 -10  38  -6 25.8246 24.9220   8
 -38  28   6 86.0366 22.6232   5
 -38  28   3 40.4938 34.9845   4
 -10  38  -3 25.7523 36.3283   8
 -10  38   0 200.964 45.5780   8
 -10  38   3 17.1472 39.9769   8
 -38  28  -6 41.3842 36.3461   4
 -10  38   6 89.2466 31.6318   8
 -38  27   4 63.0732 32.4875   4
 -11  38  -4 34.8936 35.3174   8
 -38  27   1 234.484 40.8501   4
 -11  38  -1 124.166 41.4122   8
 -11  38   2 282.010 53.9342   8
 -11  38   5 290.908 48.6315   8
 -12  38  -5 30.4427 32.8531   8
 -38  26   2 79.9895 34.8112   4
 -12  38  -2 32.9080 45.1719   8
 -12  38   1 5.59115 41.4336   8
 -38  26  -1 2.81389 35.1726   4
 -12  38   4 17.2954 39.8861   8
  38 -25  -6-22.8243 28.0910   6
 -13  38  -6-4.53476 28.6840   8
 -38  25   6 35.0525 21.2113   5
 -38  25   3 39.7114 35.1180   4
 -13  38  -3-51.3048 40.4845   8
 -13  38   0 24.3919 39.4791   8
 -38  25   0 45.8182 33.7609   4
 -38  25  -3 40.6436 36.4091   4
 -13  38   3 59.2085 43.1242   8
 -38  25  -6 18.9663 26.8200   4
 -13  38   6-31.0922 33.8668   8
 -38  24   4 153.553 33.6764   4
 -14  38  -4-51.2760 41.7620   8
 -38  24   1 44.9294 33.5549   4
 -14  38  -1 0.45191 40.2772   8
 -38  24  -2 67.1585 35.2210   4
 -14  38   2 90.4573 47.8118   8
 -38  24  -5 40.7385 29.1076   4
 -14  38   5 21.4959 39.0022   8
  38 -23  -5 111.649 36.3105   6
 -38  23   2 109.604 34.9219   4
 -15  38  -2 11.6576 46.1070   8
 -38  23  -1 454.378 56.3284   4
 -15  38   1 402.632 63.7382   8
 -38  23  -4 46.8966 31.2122   4
 -15  38   4-14.2621 43.9876   8
  38 -22  -6 98.1830 32.4731   6
 -38  22   6 115.106 25.0838   5
 -38  22   3 29.2029 34.8202   4
 -16  38  -3-81.8028 44.9245   8
 -16  38   0 27.4573 40.3536   8
 -38  22   0 25.3536 32.9100   4
 -38  22  -3 38.9235 32.2649   4
 -16  38   3 79.4208 45.8950   8
 -38  22  -6 20.7775 22.3414   4
 -16  38   6 228.336 38.8629   8
 -38  21   4 75.8909 32.1037   4
 -17  38  -4-6.94979 44.3321   8
 -38  21   1 58.3137 34.7602   4
 -17  38  -1 59.3325 44.6083   8
 -38  21  -2-16.0469 33.1713   4
 -17  38   2 63.2242 47.9314   8
 -38  21  -5 11.0223 23.5976   4
 -17  38   5-20.5801 43.1621   8
  38 -20  -5 5.41469 32.3411   6
 -38  20   2 34.7015 33.7211   4
 -38  20  -1 144.137 38.6033   4
 -38  20  -4 13.9949 26.5404   4
  38 -19  -6 12.7282 29.1532   6
 -38  19   6-6.22141 20.9501   5
 -38  19   3 26.7104 33.8030   4
 -38  19   0 26.0788 34.1794   4
 -38  19  -3 87.5305 31.0998   4
 -38  19  -6-0.92228 16.5004   4
 -38  18   4-20.0701 31.5749   4
 -38  18   1 104.914 37.8434   4
 -38  18  -2 73.6911 34.5417   4
 -38  18  -5-35.7231 20.2494   4
  38 -17  -5-16.1349 32.6523   6
 -38  17   2 398.482 46.2788   4
 -21  38  -2 72.7189 55.3451   8
 -21  38   1 61.7856 44.8619   8
 -38  17  -1 50.5058 37.5399   4
 -38  17  -4-18.9164 23.2347   4
 -21  38   4-8.91147 44.1523   8
  38 -16  -6 144.307 33.6309   6
 -22  38  -3-121.068 59.1829   8
 -38  16   3 461.670 45.3674   4
 -22  38   0 113.205 45.4638   8
 -38  16   0 299.626 44.2182   4
 -38  16  -3 53.1740 31.0934   4
 -22  38   3 164.495 45.7353   8
 -38  16  -6-0.87579 13.7451   4
 -22  38   6 13.0465 35.0925   8
 -38  15   4 38.4505 31.3005   4
  38 -15  -4 42.4980 30.2916   6
 -23  38  -4 18.2103 52.7646   8
 -38  15   1 168.296 41.5168   4
 -23  38  -1 59.0750 43.8558   8
 -23  38   2 10.5833 43.7608   8
 -38  15  -2 26.4147 35.7084   4
 -38  15  -5 1.13684 17.4239   4
 -23  38   5 43.5236 40.3960   8
  38 -14  -5 234.239 36.6998   6
 -24  38  -5 18.6899 58.1453   8
 -24  38  -2 35.3699 62.0474   8
 -38  14   2 586.072 53.5568   4
 -24  38   1 8.79755 26.0030   4
 -24  38   1 14.1032 40.9096   8
 -38  14  -1 15.8868 40.2587   4
 -38  14  -4-1.71284 22.5455   4
 -24  38   4 11.4521 39.9023   8
  38 -13  -6 100.700 28.8713   6
 -25  38  -6-18.6852 49.7242   8
 -38  13   3-5.11488 32.0937   4
 -25  38  -3 59.0416 51.5550   8
 -25  38   0 177.658 32.2248   4
 -38  13   0 199.438 46.3770   4
 -25  38   0 76.9289 42.5995   8
 -38  13  -3 263.706 47.4918   4
 -25  38   3 462.763 54.7696   8
 -38  13  -6 8.24739 12.4086   4
 -25  38   6 159.531 33.8454   8
  38 -12  -4 32.5797 28.2207   6
 -26  38  -4 44.4374 54.1421   8
 -38  12   1 34.3804 39.7028   4
 -26  38  -1 59.9443 30.1227   4
 -26  38  -1 5.27814 40.1682   8
 -26  38   2 4.60575 28.4108   4
 -26  38   2-2.38166 42.1194   8
 -38  12  -2 19.6560 43.2380   4
 -38  12  -5 2.46955 16.2350   4
 -26  38   5 3.17063 36.0201   8
 -26  38   5 1.25648 21.2106   5
  38 -11  -5 107.444 29.9655   6
 -27  38  -5-14.8960 56.6275   8
 -38  11   2 204.511 39.2170   4
 -27  38  -2 124.304 32.9687   4
 -27  38   1 9.97650 30.6094   4
 -27  38   1 40.3033 38.3905   8
 -38  11  -1-8.96841 48.4710   4
 -38  11  -4 13.7296 24.3773   4
 -27  38   4 50.0091 38.5489   8
 -28  38  -6-3.50060 49.0688   8
 -28  38  -3-4.45299 50.1470   8
 -28  38  -3 24.7286 29.4004   4
 -28  38   0 34.6733 32.9797   4
 -38  10   0 42.9989 47.9549   4
 -28  38   0 2.18097 39.5310   8
 -28  38   3-23.5817 30.5729   4
 -28  38   3 35.1837 36.6863   8
 -38  10  -3-22.8258 37.2435   4
 -28  38   6 12.7823 28.5855   8
  38  -9  -4 123.920 29.7011   6
 -29  38  -4 37.8713 54.2969   8
 -29  38  -4 87.2460 32.6291   4
 -29  38  -1 141.608 35.4875   4
 -29  38  -1 46.2157 38.8358   8
 -29  38   2 222.440 51.0846   8
 -29  38   2 394.878 46.9033   4
 -29  38   5 172.684 35.7077   8
 -29  38   5 143.001 28.3172   5
  38  -8  -5 305.653 36.5886   6
 -30  38  -5-5.69409 55.3099   8
 -30  38  -2-14.9003 40.0180   8
 -30  38  -2 28.9411 34.2532   4
 -30  38   1 237.955 40.6595   4
 -30  38   1 147.819 43.4946   8
 -30  38   4-10.2037 33.1211   8
 -31  38  -3 26.5310 43.0011   8
 -31  38  -3 56.2417 35.1502   4
 -31  38   0 63.1607 36.4703   4
 -31  38   0 20.4015 35.9306   8
 -31  38   3 366.217 44.0848   4
 -31  38   3 192.361 45.0023   8
  38  -6  -4-11.7431 27.0121   6
 -32  38  -4 16.3068 42.8170   8
 -32  38  -4 21.7086 35.7838   4
 -32  38  -1 79.0010 36.9806   4
 -32  38  -1-5.64490 36.0256   8
 -32  38   2 233.482 52.5816   8
 -32  38   2 594.097 54.3295   4
 -32  38   5 73.5262 27.8705   8
  32 -38  -5 39.7033 36.6254   6
 -32  38   5 63.9907 22.7195   5
  38  -5  -5 118.104 29.3068   6
 -33  38  -2 4.74311 31.9520   8
 -33  38  -2-7.13064 37.7130   4
 -33  38   1 78.4078 35.4387   4
 -33  38   1 18.9855 34.5346   8
 -33  38   4 36.7580 29.8652   8
 -34  38  -3-37.0666 29.9384   8
 -34  38  -3 28.2930 39.0549   4
 -34  38   0-10.5779 38.2417   4
 -34  38   0 4.37126 32.1715   8
 -34  38   3 22.5123 30.0283   8
 -35  38  -4 52.9202 40.2712   4
 -35  38  -1 14.0689 28.4851   8
 -35  38  -1 4.08452 38.2719   4
 -35  38   2 74.1260 34.7003   4
 -35  38   2 5.37106 29.4012   8
 -36  38  -2 148.711 43.8152   4
 -36  38   1 188.916 40.6337   4
 -37  38  -3 100.884 43.9227   4
 -37  38   0 211.506 43.9558   4
 -37  38   3-1.47442 30.5342   4
 -38  38  -4 40.3545 42.4402   4
 -38  38  -1-16.6483 39.8625   4
 -38  38   2 81.4026 35.1022   4
 -39  38   1 43.7502 34.6549   4
 -39  38  -2 18.5310 40.8011   4
 -39  37   2 15.4816 32.7766   4
 -39  37  -1 213.547 45.7938   4
 -39  37  -4 260.923 54.2284   4
 -39  36   3-7.86437 29.3034   4
 -39  36   0 31.0697 37.8452   4
  -3  39   0 7.35557 27.9759   8
 -39  36  -3 51.9962 46.0069   4
 -39  35   4 16.1645 27.6341   4
 -39  35   1 175.090 37.0067   4
  -4  39  -1 70.3837 29.6422   8
  -4  39   2 2.98092 28.7658   8
 -39  35  -2 114.121 42.4453   4
 -39  34   2-13.3559 32.5044   4
  -5  39  -2 8.20112 26.7123   8
  -5  39   1 10.0885 31.9506   8
 -39  34  -1-7.93025 38.1311   4
  -5  39   4 49.1292 27.5500   8
 -39  34  -4 141.508 51.3350   4
  -6  39  -3 511.094 88.1921   8
 -39  33   3 1665.20 94.2361   4
  -6  39   0 161.270 40.0793   8
 -39  33   0 261.072 43.3041   4
  -6  39   3 96.4080 35.5301   8
 -39  33  -3 248.337 50.5951   4
  -7  39  -4-18.1721 26.0767   8
 -39  32   1 6.66619 34.9663   4
  -7  39  -1 22.2170 32.8778   8
  -7  39   2 59.9897 34.9478   8
 -39  32  -2 90.7533 42.5861   4
 -39  32  -5 112.105 48.3250   4
  -7  39   5 39.5168 27.6558   8
  -8  39  -5 16.0736 24.5670   8
  -8  39  -2 153.133 35.5723   8
  -8  39   1 49.0404 39.1570   8
 -39  31  -1 26.5776 36.5566   4
 -39  31  -4 5.77813 45.9944   4
  -8  39   4 21.1731 33.5004   8
  -9  39  -3-13.2373 33.2877   8
  -9  39   0 109.189 40.7504   8
  -9  39   3 55.1850 38.7070   8
 -39  30  -3 143.015 44.4371   4
 -39  29   4 36.1531 30.6667   4
 -10  39  -4 23.3322 31.1338   8
 -10  39  -1 217.166 42.6171   8
 -10  39   2 62.1070 42.4331   8
 -39  29  -5 0.36933 38.6536   4
 -10  39   5 8.73006 31.2904   8
 -11  39  -5-1.44827 27.5316   8
 -39  28   2 44.1747 33.5975   4
 -11  39  -2 14.5942 36.7789   8
 -11  39   1-32.7927 41.2534   8
 -11  39   4 46.0393 38.2673   8
 -12  39  -6 35.8248 24.2428   8
 -39  27   6 7.51766 19.5974   5
 -39  27   3 40.1764 33.4665   4
 -12  39  -3-0.84323 39.2670   8
 -12  39   0 106.254 44.0769   8
 -39  27   0 167.074 37.1879   4
 -39  27  -3 18.0232 37.0028   4
 -12  39   3 22.9114 40.2795   8
 -12  39   6 4.19780 30.1815   8
 -13  39  -4 41.0479 41.7619   8
 -39  26   4 372.448 39.7900   4
 -39  26   1 282.565 41.9370   4
 -13  39  -1 121.520 44.1685   8
 -13  39   2 236.772 52.7091   8
 -39  26  -2 248.302 44.3364   4
 -39  26  -5 8.30045 30.1967   4
 -13  39   5 4.84735 37.0712   8
 -14  39  -5-12.5609 32.5733   8
 -39  25   2 18.6827 33.3116   4
 -14  39  -2 5.30191 42.4528   8
 -14  39   1 52.9832 41.9883   8
 -39  25  -1 43.3292 34.3808   4
 -39  25  -4 45.1286 31.9607   4
 -14  39   4 34.7319 41.3904   8
 -15  39  -6 1.19704 28.8407   8
 -39  24   6 74.4059 21.4847   5
 -39  24   3 39.8895 33.8531   4
 -15  39  -3 5.61650 42.3677   8
 -15  39   0 5.60621 42.2836   8
 -39  24   0 21.1046 33.1213   4
 -39  24  -3-10.3227 33.0194   4
 -15  39   3-4.34395 42.3627   8
 -39  24  -6 10.3295 20.9542   4
 -15  39   6-7.91707 32.4747   8
 -39  23   4 47.8357 31.3844   4
 -16  39  -4-3.98234 38.9292   8
 -39  23   1 127.658 36.9473   4
 -16  39  -1 41.3580 43.4579   8
 -16  39   2 262.037 56.3817   8
 -39  23  -2 262.726 42.7095   4
 -39  23  -5 88.8943 29.4898   4
 -16  39   5 377.677 45.7273   8
 -17  39  -5 10.1553 37.0134   8
 -39  22   2 2.00465 32.9959   4
 -17  39  -2 0.52573 46.6307   8
 -17  39   1 38.9546 45.2975   8
 -39  22  -1 19.8173 34.1877   4
 -39  22  -4 15.5432 25.9756   4
 -17  39   4-32.2554 44.5042   8
 -18  39  -6-59.1132 33.6944   8
 -39  21   6 36.7190 20.4714   5
 -39  21   3 77.8419 34.7459   4
 -39  21   0 23.6723 33.2791   4
 -39  21  -3 1.73473 29.2978   4
 -18  39   3 0.49619 43.9320   8
 -39  21  -6-10.4992 16.3095   4
 -18  39   6 13.8767 33.9168   8
 -39  20   4 168.009 35.9656   4
 -39  20   1 12.4432 36.2516   4
 -39  20  -2 1.24202 31.5263   4
 -39  20  -5 11.4554 19.8511   4
 -39  19   2 59.1581 36.4738   4
 -39  19  -1 263.758 44.6977   4
 -39  19  -4-9.99708 22.4842   4
 -21  39  -6-20.9305 37.7243   8
 -39  18   3 121.743 35.2350   4
 -21  39  -3-31.3084 49.7331   8
 -21  39   0 4.66574 42.0608   8
 -39  18   0 41.0174 36.2556   4
 -39  18  -3 3.58478 28.3762   4
 -21  39   3 7.81350 44.0832   8
 -39  18  -6 9.90321 13.7851   4
 -21  39   6 78.9718 34.7290   8
 -39  17   4 89.8780 31.7127   4
 -22  39  -4-14.6457 50.2975   8
 -39  17   1 9.91593 37.6802   4
 -22  39  -1 25.9455 42.5268   8
 -22  39   2 202.530 51.2283   8
 -39  17  -2 146.401 38.5415   4
 -39  17  -5-21.2462 16.9977   4
 -22  39   5 17.3151 38.9747   8
  39 -16  -5 18.5810 28.0244   6
 -23  39  -5 3.12554 48.7705   8
 -39  16   2 35.2297 35.6206   4
 -23  39  -2 29.1652 50.5958   8
 -39  16  -1 748.591 77.4701   4
 -23  39   1 572.771 80.8183   8
 -39  16  -4 35.7075 22.9743   4
 -23  39   4 187.462 42.4574   8
 -24  39  -6-28.0994 43.4218   8
 -39  15   3 123.691 35.0196   4
 -24  39  -3 22.0742 50.9940   8
 -39  15   0 27.1098 40.4304   4
 -24  39   0 13.8493 42.2418   8
 -39  15  -3 13.3041 29.5940   4
 -24  39   3 44.8050 41.2014   8
 -24  39   6 40.5635 32.5952   8
 -25  39  -4-44.1508 53.9374   8
 -39  14   1 134.084 41.5221   4
 -25  39  -1 2.26118 41.0458   8
 -25  39   2 66.7904 44.8862   8
 -39  14  -2 64.5523 39.1337   4
 -39  14  -5-10.6447 15.7565   4
 -25  39   5 98.0441 37.0086   8
  39 -13  -5 17.9694 26.8609   6
 -26  39  -5 69.9249 53.4558   8
 -39  13   2 30.5896 37.2592   4
 -26  39  -2 1.57358 46.4086   8
 -26  39   1 2.01528 27.3212   4
 -26  39   1 20.5312 40.5823   8
 -39  13  -1-2.90336 44.1611   4
 -39  13  -4 6.81633 21.7961   4
 -26  39   4 18.9040 38.7136   8
 -27  39  -3-3.44141 52.3436   8
 -27  39   0 203.710 35.4901   4
 -39  12   0 291.435 53.3111   4
 -27  39   3 54.3446 38.5323   8
 -39  12  -3 29.3937 32.1091   4
 -27  39   6 76.5721 30.2946   8
 -28  39  -4-121.853 57.1976   8
 -28  39  -1 24.5556 30.9979   4
 -28  39  -1 9.77985 38.9862   8
 -28  39   2 382.763 58.8383   8
 -39  11  -2 317.571 62.4393   4
 -28  39   2 488.955 51.7162   4
 -28  39   5 31.2624 32.3577   8
 -28  39   5 44.5139 21.0914   5
 -29  39  -5 12.0130 53.3903   8
 -29  39  -2 95.9037 31.3641   4
 -29  39  -2-98.3477 42.5299   8
 -29  39   1 75.5348 33.3590   4
 -29  39   1 48.2701 39.6465   8
 -29  39   4 96.8431 35.8966   8
 -30  39  -3-0.49946 46.5594   8
 -30  39  -3-3.20941 29.3866   4
 -30  39   0 5.54425 32.4752   4
 -30  39   0-13.3812 39.0783   8
 -30  39   3 65.0955 31.4842   4
 -30  39   3 27.1069 35.5068   8
 -31  39  -4-24.9900 49.3621   8
 -31  39  -1 19.2931 34.9212   4
 -31  39  -1 0.40448 37.2811   8
 -31  39   2 167.764 36.5045   4
 -31  39   2 100.133 37.7984   8
 -31  39   5 9.67301 26.3004   8
 -31  39   5-5.18743 20.8788   5
 -32  39  -2-19.7209 36.4280   8
 -32  39  -2 83.8793 34.9400   4
 -32  39   1 28.9434 34.1574   4
 -32  39   1-7.44269 36.3863   8
 -32  39   4 0.31155 29.6762   8
 -33  39  -3 0.71390 35.0990   8
 -33  39  -3 14.3777 34.0682   4
 -33  39   0 91.1776 36.6809   4
 -33  39   0 17.1282 34.8650   8
 -33  39   3 21.5517 31.7350   4
 -33  39   3 52.3965 31.2905   8
 -34  39  -4 6.66694 29.4793   8
 -34  39  -4 64.4279 33.9238   4
 -34  39  -1 139.509 39.3756   4
 -34  39  -1 4.08484 34.2565   8
 -34  39   2 211.109 37.7032   4
 -34  39   2 77.3931 34.4664   8
 -35  39  -2 14.4668 31.4693   8
 -35  39  -2-8.44655 37.9011   4
 -35  39   1 26.1209 34.9422   4
 -35  39   1 11.3532 29.2358   8
 -36  39  -3-5.89963 38.2247   4
 -36  39   0-5.61542 36.1618   4
 -36  39   0-11.6419 28.7611   8
 -36  39   3 31.9189 30.1791   4
 -37  39  -4-32.4292 36.4656   4
 -37  39  -1 149.351 42.9819   4
 -37  39   2 59.9104 33.9342   4
 -38  39  -2 1.09968 39.6280   4
 -38  39   1 98.6133 36.0902   4
 -39  39  -3 31.2091 40.2350   4
 -39  39   0 24.7892 35.1699   4
 -39  39   3 16.9966 28.2040   4
 -40  39   2-10.8635 29.8990   4
 -40  39  -1 36.9971 38.6862   4
 -40  38   3 140.466 31.3222   4
 -40  38   0 154.711 39.8278   4
 -40  38  -3 42.7707 42.1338   4
 -40  37   1-11.1020 33.8612   4
 -40  37  -2 320.652 53.7904   4
 -40  36   2 242.101 37.0549   4
  -4  40  -2 113.120 28.7063   8
  -4  40   1 126.046 32.1683   8
 -40  36  -1 254.892 43.5736   4
 -40  36  -4 145.877 49.3915   4
 -40  35   3 15.4262 29.1266   4
 -40  35   0 13.7692 36.9497   4
  -5  40   0-1.23863 29.4001   8
  -5  40   3 22.3440 26.5620   8
 -40  35  -3 0.42069 43.8994   4
 -40  34   4 75.7624 27.7482   4
  -6  40  -4-4.61050 19.7837   8
 -40  34   1 206.401 38.9297   4
  -6  40  -1 119.729 34.1530   8
  -6  40   2 10.8232 30.0905   8
 -40  34  -2 21.4343 40.2539   4
 -40  33   2 113.844 34.4355   4
  -7  40  -2 36.9088 28.9324   8
  -7  40   1 108.154 37.2470   8
 -40  33  -1 152.304 40.8481   4
  -7  40   4 46.2734 28.8294   8
 -40  33  -4 66.2667 47.0428   4
  -8  40  -3-14.8237 27.1596   8
  -8  40   0 32.5215 34.8297   8
  -8  40   3 46.7385 33.2591   8
 -40  32  -3 40.0331 43.3656   4
 -40  31   4-9.61958 28.7789   4
  -9  40  -4 22.6764 26.6428   8
  -9  40  -1 171.940 39.7416   8
  -9  40   2-4.24339 35.1964   8
 -40  31  -5-6.13204 39.1408   4
  -9  40   5-21.2258 26.8714   8
 -10  40  -5-2.03269 24.7660   8
 -40  30   2 13.3805 33.0569   4
 -10  40  -2 16.8395 31.8157   8
 -10  40   1 61.8684 41.2072   8
 -10  40   4 24.1090 33.9674   8
 -40  29   3 255.913 36.5324   4
 -11  40  -3 27.3945 37.1459   8
 -11  40   0 153.146 44.7095   8
 -40  29   0 189.630 39.0064   4
 -11  40   3 127.293 41.7910   8
 -40  28   4 112.118 31.0176   4
 -12  40  -4-22.8175 33.1201   8
 -40  28   1-42.7611 34.4597   4
 -12  40  -1 4.41142 36.3917   8
 -12  40   2 2.28983 40.8889   8
 -40  28  -2 50.1079 37.0434   4
 -12  40   5 28.2049 32.2667   8
 -13  40  -5 5.37791 28.1379   8
 -40  27   2 362.102 42.3386   4
 -13  40  -2 79.7989 44.9707   8
 -13  40   1 29.2036 42.6885   8
 -40  27  -1 21.1096 32.9467   4
 -40  27  -4-17.5366 32.3939   4
 -13  40   4 50.8520 38.4360   8
 -40  26   3 45.4775 32.6003   4
 -14  40  -3 6.11583 39.4336   8
 -14  40   0 175.373 47.1888   8
 -40  26   0 146.053 37.0317   4
 -40  26  -3 150.027 36.6570   4
 -14  40   3 185.038 45.9349   8
 -40  26  -6 76.3377 28.0624   4
 -14  40   6 351.242 36.7849   8
 -40  25   4-12.4479 29.7007   4
 -15  40  -4 25.6793 36.1680   8
 -40  25   1 176.684 37.8142   4
 -15  40  -1 86.6801 42.1658   8
 -15  40   2 76.1220 45.9685   8
 -40  25  -2-12.7804 32.1625   4
 -40  25  -5-14.0824 24.8180   4
 -15  40   5 33.7709 36.4527   8
 -16  40  -5-9.06242 32.2878   8
 -40  24   2 80.4752 33.6769   4
 -16  40  -2 22.3513 43.4393   8
 -16  40   1 0.49289 43.6698   8
 -40  24  -1-1.25824 31.4729   4
 -40  24  -4-3.64390 26.7545   4
 -16  40   4 24.3997 41.3098   8
 -17  40  -6 3.21721 28.5200   8
 -40  23   3 203.233 35.8885   4
 -17  40  -3-30.5140 44.6009   8
 -40  23   0 41.1547 32.9755   4
 -40  23  -3-18.4421 29.2950   4
 -17  40   3 34.5538 42.9014   8
 -40  23  -6-4.41751 16.8586   4
 -17  40   6-33.6475 31.9418   8
 -18  40  -4-6.17746 46.5709   8
 -40  22   4 386.787 40.1528   4
 -40  22   1 122.623 36.7934   4
 -18  40  -1 29.8230 42.2407   8
 -18  40   2 18.5223 47.3570   8
 -40  22  -2 11.2546 31.1371   4
 -40  22  -5-3.32478 19.9875   4
 -18  40   5 74.4328 39.4070   8
 -40  21   2 29.2311 33.6717   4
 -40  21  -1 173.941 37.3574   4
 -40  21  -4 18.3669 23.1724   4
 -40  20   3 56.0159 33.6716   4
 -40  20   0 27.7108 33.7990   4
 -40  20  -3-28.3173 27.6688   4
 -40  20  -6 16.9938 13.5858   4
 -40  19   4 64.1321 31.6555   4
 -40  19   1 35.3450 36.8069   4
 -40  19  -2 153.118 35.8775   4
 -40  19  -5 20.0965 17.1816   4
 -22  40  -5 39.2912 43.0208   8
 -40  18   2 123.691 36.7053   4
 -22  40  -2 5.29527 49.1199   8
 -22  40   1 39.4399 44.5416   8
 -40  18  -1 46.3152 35.2284   4
 -40  18  -4 9.32468 21.5669   4
 -22  40   4 49.9212 40.6531   8
 -23  40  -6-7.34661 37.1073   8
 -40  17   3 87.4705 34.8402   4
 -23  40  -3 37.7977 51.0317   8
 -40  17   0 19.1696 37.9708   4
 -23  40   0 11.1420 43.1243   8
 -40  17  -3-10.1667 25.9230   4
 -23  40   3 5.11835 41.9290   8
 -23  40   6 59.1601 31.6186   8
 -24  40  -4-36.2045 49.4646   8
 -40  16   1 63.8914 38.9408   4
 -24  40  -1 3.22567 41.9475   8
 -24  40   2 141.301 46.7578   8
 -40  16  -2 84.0047 36.2118   4
 -40  16  -5-3.06479 14.8710   4
 -24  40   5 33.6488 36.0148   8
 -25  40  -5 32.7484 48.0995   8
 -25  40  -2 28.0143 55.9804   8
 -40  15   2 497.739 50.5075   4
 -25  40   1 6.15506 42.7836   8
 -40  15  -1 71.4452 40.3029   4
 -40  15  -4 5.74150 20.6057   4
 -25  40   4 19.4022 38.2159   8
 -40  14   3 183.580 37.8519   4
 -26  40  -3-0.57815 53.6365   8
 -40  14   0-25.7880 46.3921   4
 -26  40   0 0.47938 43.2125   8
 -26  40   3 70.9546 38.9964   8
 -40  14  -3 0.76867 27.8211   4
 -27  40  -4 17.8323 53.6493   8
 -40  13   1 405.003 49.8206   4
 -27  40  -1 34.1436 45.8032   8
 -27  40   2 56.9338 26.8426   4
 -27  40   2 50.7617 41.4055   8
 -40  13  -2 0.34873 38.7713   4
 -40  13  -5-20.6504 13.6091   4
 -27  40   5 39.4173 32.2394   8
 -28  40  -5-14.0124 52.1196   8
 -28  40  -2-2.83854 42.9319   8
 -28  40   1 26.2062 28.8547   4
 -28  40   1 24.4868 40.3517   8
 -40  12  -1 41.4368 49.4887   4
 -28  40   4 147.333 39.2218   8
 -29  40  -3 14.1766 48.9724   8
 -29  40   0 58.4321 30.5923   4
 -29  40   0 44.5038 41.3208   8
 -29  40   3 24.0540 35.8768   8
 -30  40  -4-43.6694 51.5384   8
 -30  40  -1 35.3958 31.3873   4
 -30  40  -1 6.48614 39.3888   8
 -30  40   2 10.9518 35.8387   8
 -30  40   5-2.80482 26.8138   8
 -31  40  -2-18.3428 31.2883   4
 -31  40  -2-10.3739 39.9896   8
 -31  40   1 17.6315 32.2236   4
 -31  40   1 22.8052 38.1316   8
 -31  40   4 63.5392 31.4947   8
 -32  40  -3 31.0445 39.6575   8
 -32  40  -3 58.7823 30.1721   4
 -32  40   0 345.687 41.9276   4
 -32  40   0 102.621 44.0756   8
 -32  40   3 288.509 52.9503   8
 -32  40   3 545.769 52.1462   4
 -33  40  -4 27.6946 36.5578   8
 -33  40  -1 17.4332 35.1199   4
 -33  40  -1 2.30881 36.2627   8
 -33  40   2-6.82114 31.2625   4
 -33  40   2-18.3644 31.4387   8
 -34  40  -2 107.049 35.8708   4
 -34  40  -2 32.1544 35.8130   8
 -34  40   1 17.0819 33.8438   4
 -34  40   1 16.1552 32.2575   8
 -34  40   4 62.6428 25.8647   8
 -35  40  -3 13.0218 29.2108   8
 -35  40  -3-0.89783 33.2967   4
 -35  40   0 44.5141 33.9184   4
 -35  40   0 6.53187 32.0299   8
 -35  40   3 105.668 30.3351   4
 -35  40   3 14.1057 27.1405   8
 -36  40  -1 32.2698 37.5046   4
 -36  40  -1 5.29960 28.1111   8
 -36  40   2 182.801 37.0039   4
 -37  40  -2-22.1042 36.8867   4
 -37  40   1 58.5988 34.5819   4
 -38  40  -3 6.80389 36.2460   4
 -38  40   0-8.76503 34.2724   4
 -38  40   3 21.2762 27.6620   4
 -39  40  -1 186.171 42.4674   4
 -39  40   2 241.412 39.1405   4
 -40  40  -2 87.6134 39.8385   4
 -40  40   1 6.09146 32.6263   4
 -41  40   0 20.7831 33.2169   4
 -41  39   1 185.371 37.7236   4
 -41  39  -2 305.353 51.1221   4
 -41  38   2 43.0316 30.8654   4
 -41  38  -1 25.0375 38.5545   4
 -41  37   3 189.014 33.5306   4
 -41  37   0 42.9298 35.9380   4
 -41  37  -3 50.4600 42.2658   4
 -41  36   1 39.8987 33.4248   4
  -5  41  -1 33.1474 25.6950   8
 -41  36  -2 29.1759 40.5237   4
 -41  35   2 6.40701 30.7285   4
  -6  41  -2 16.7031 25.5507   8
  -6  41   1 12.1373 28.0689   8
 -41  35  -1 34.5602 36.3487   4
 -41  35  -4 49.9650 43.3210   4
 -41  34   3 32.9771 28.5526   4
  -7  41  -3 25.2285 22.5179   8
 -41  34   0 35.0236 35.7461   4
  -7  41   0 35.2703 31.8466   8
  -7  41   3-6.09921 28.4054   8
 -41  34  -3 11.7528 40.6443   4
  -8  41  -4 2.84898 20.3688   8
  -8  41  -1 9.89357 31.1058   8
  -8  41   2 84.2640 32.7192   8
 -41  33  -2 36.0800 38.6112   4
  -9  41  -2 83.9616 31.2639   8
  -9  41   1 374.849 54.9224   8
  -9  41   4 81.2459 30.6897   8
 -41  32  -4 48.9897 41.3691   4
 -41  31   3 217.980 34.0993   4
 -10  41  -3 78.1543 31.2887   8
 -10  41   0 12.8745 35.9805   8
 -10  41   3 18.6461 33.9615   8
 -41  30   4 157.649 29.9433   4
 -11  41  -4 29.0415 28.4337   8
 -41  30   1 315.151 43.7761   4
 -11  41  -1 189.805 45.1889   8
 -11  41   2 18.0284 37.3755   8
 -11  41   5 16.7320 27.2414   8
 -12  41  -5 14.1302 25.2868   8
 -41  29   2 5.02540 30.8971   4
 -12  41  -2 2.86402 32.9999   8
 -12  41   1 161.690 46.1770   8
 -41  29  -1 189.434 38.6897   4
 -12  41   4 230.508 43.5078   8
 -41  28   3 23.0337 30.4455   4
 -13  41  -3 8.46116 34.2095   8
 -13  41   0 71.8340 43.4587   8
 -41  28   0 126.515 34.8521   4
 -13  41   3 0.42469 38.3610   8
 -41  28  -3 1.27601 33.0074   4
 -41  27   4 67.9986 29.0670   4
 -14  41  -4-8.86047 33.7180   8
 -41  27   1 23.2092 32.6030   4
 -14  41  -1-10.9084 38.9652   8
 -14  41   2 33.6102 42.0022   8
 -41  27  -2 4.83651 32.4367   4
 -41  27  -5 25.0843 26.0663   4
 -14  41   5 90.3545 32.6790   8
 -15  41  -5 2.13520 28.7407   8
 -41  26   2 40.0571 31.2596   4
 -15  41  -2-49.3756 38.0796   8
 -15  41   1 133.549 48.2300   8
 -41  26  -1 165.258 35.1777   4
 -41  26  -4 20.8814 27.3325   4
 -15  41   4 8.73470 38.1075   8
 -41  25   3 206.573 35.8223   4
 -16  41  -3 16.1602 44.0751   8
 -16  41   0 234.030 55.4134   8
 -41  25   0 323.776 44.8306   4
 -16  41   3 46.3607 42.1864   8
 -41  25  -3 44.7963 28.9665   4
 -41  24   4 37.9458 29.7984   4
 -17  41  -4 47.7642 37.3158   8
 -41  24   1 43.0237 34.3206   4
 -17  41  -1 37.8687 41.5046   8
 -17  41   2 46.0461 45.2454   8
 -41  24  -2-13.0508 31.3727   4
 -41  24  -5-0.18812 20.2043   4
 -17  41   5-27.5338 35.6287   8
 -18  41  -5 8.74502 32.8361   8
 -41  23   2 40.5095 33.7333   4
 -18  41  -2 24.1549 42.6179   8
 -18  41   1 67.2064 45.2711   8
 -41  23  -1 93.7319 32.4286   4
 -41  23  -4-16.7009 23.6783   4
 -18  41   4 52.6210 39.7593   8
 -41  22   3-18.2686 32.0869   4
 -19  41  -3-94.2839 45.3900   8
 -41  22   0 255.292 42.5034   4
 -19  41   3 66.9766 43.4469   8
 -41  22  -3 64.3666 27.2706   4
 -41  21   4 14.8478 29.1448   4
 -41  21   1-2.73256 35.2304   4
 -41  21  -2 100.905 33.0809   4
 -41  21  -5-3.68310 16.4669   4
 -41  20   2 68.8104 35.7613   4
 -41  20  -1 64.9211 33.7482   4
 -41  20  -4 14.0117 20.5550   4
 -41  19   3 353.418 41.6215   4
 -22  41  -3 5.34631 53.1515   8
 -41  19   0 104.194 37.5930   4
 -22  41   0 53.4087 45.6659   8
 -22  41   3 14.3268 40.7284   8
 -41  19  -3-8.91222 24.6214   4
 -23  41  -4 24.2382 47.3544   8
 -41  18   1 151.966 39.7624   4
 -23  41  -1 49.4019 43.9541   8
 -23  41   2 161.850 48.4408   8
 -41  18  -2 82.5362 33.0216   4
 -41  18  -5 4.26763 14.6236   4
 -23  41   5 51.8530 35.3324   8
 -24  41  -5 25.0818 43.4296   8
 -41  17   2 137.076 39.2363   4
 -24  41  -2-35.0910 45.9069   8
 -24  41   1-0.48649 43.7627   8
 -41  17  -1-1.36615 35.8049   4
 -41  17  -4 3.19457 18.1231   4
 -24  41   4 54.8594 37.9816   8
 -41  16   3 118.869 36.2415   4
 -25  41  -3-35.9073 52.2162   8
 -41  16   0 27.3071 42.7516   4
 -25  41   0 51.0681 45.0940   8
 -25  41   3-0.43655 39.8716   8
 -26  41  -4-11.0008 51.7631   8
 -41  15   1 88.3192 42.5772   4
 -26  41  -1 14.1871 41.7380   8
 -26  41   2 195.814 46.7688   8
 -41  15  -2 161.006 38.6506   4
 -26  41   5 126.328 34.6742   8
 -27  41  -5-21.2636 49.8561   8
 -27  41  -2 1.44016 42.7678   8
 -27  41   1 62.6961 43.9252   8
 -41  14  -1 118.124 44.8888   4
 -27  41   4 75.7733 35.8026   8
 -41  14  -4-11.0718 18.1760   4
 -28  41  -3 5.27227 48.0669   8
 -28  41   0 24.7992 42.1043   8
 -28  41   3 151.367 38.7438   8
 -41  13  -3 23.9539 27.2499   4
 -29  41  -4-0.53438 51.6531   8
 -29  41  -1-15.4523 41.5241   8
 -29  41   2 21.2678 26.5814   4
 -29  41   2-21.4893 37.6400   8
 -29  41   5 7.07451 26.8776   8
 -30  41  -2 6.62178 40.9537   8
 -30  41   1 287.870 38.0060   4
 -30  41   1 108.647 46.7634   8
 -30  41   4 75.7747 32.4501   8
 -31  41  -3-24.4860 42.6366   8
 -31  41   0 17.8128 29.8119   4
 -31  41   0 0.41385 38.3097   8
 -31  41   3-9.21089 32.0281   8
 -32  41  -4 35.0232 41.4459   8
 -32  41  -1 153.820 33.0169   4
 -32  41  -1-13.9358 42.0144   8
 -32  41   2 45.1400 29.1598   4
 -32  41   2 31.3602 32.8520   8
 -33  41  -2 42.6408 31.5980   4
 -33  41  -2 36.3557 39.0234   8
 -33  41   1 93.7320 32.1811   4
 -33  41   1 36.2397 34.9879   8
 -33  41   4 106.611 28.9370   8
 -34  41  -3 21.6679 34.6196   8
 -34  41   0 61.7849 32.9918   4
 -34  41   0 24.7461 34.6934   8
 -34  41   3 14.4914 27.8869   8
 -35  41  -1 116.225 34.7562   4
 -35  41  -1-37.2529 32.9854   8
 -35  41   2 11.3370 29.6246   4
 -35  41   2 8.67886 27.3948   8
 -36  41  -2-18.1193 33.9768   4
 -36  41   1 23.1056 32.0986   4
 -36  41   1-7.71810 26.4704   8
 -37  41   0 78.9558 34.6208   4
 -37  41   3 6.42475 26.5090   4
 -38  41  -1 57.6207 35.2493   4
 -38  41   2 2.93339 28.4275   4
 -39  41  -2 75.0638 36.2226   4
 -39  41   1 11.8854 31.3571   4
 -40  41   0 54.3410 33.6579   4
 -41  41  -1-2.11141 33.3117   4
 -42  40   2 93.1592 27.9503   4
 -42  39   0 38.6136 33.1413   4
 -42  38   1 41.4927 32.0938   4
 -42  38  -2 24.1946 39.2797   4
 -42  37   2 14.8792 29.3860   4
 -42  37  -1 75.5615 38.6965   4
 -42  36   3 169.168 31.4864   4
 -42  36   0 25.9638 34.4139   4
  -6  42   0-3.15036 26.0181   8
 -42  36  -3 129.458 43.3880   4
 -42  35   1 223.839 36.4924   4
  -7  42  -1 112.191 31.7415   8
  -7  42   2 65.0969 28.9653   8
 -42  35  -2 153.509 40.3881   4
  -8  42  -2 29.8928 26.8802   8
  -8  42   1 9.38451 29.4331   8
 -42  34  -1 1.36205 34.8034   4
 -42  34  -4-1.75089 38.1352   4
  -9  42  -3 48.3799 23.9481   8
  -9  42   0 64.7678 34.0834   8
  -9  42   3 14.0169 29.3066   8
 -42  33  -3-41.5824 37.0720   4
 -42  32   4 48.8332 24.9891   4
 -10  42  -4-10.8153 21.3315   8
 -10  42  -1 56.8749 33.9217   8
 -10  42   2 66.1957 34.5137   8
 -42  31   2 68.8935 31.0105   4
 -11  42  -2 13.1754 30.7352   8
 -11  42   4-4.66769 29.7124   8
 -42  30   3 34.6797 28.3355   4
 -12  42  -3 21.5693 28.4979   8
 -42  30   0 75.2915 33.6743   4
 -12  42   0 74.8761 39.1125   8
 -12  42   3 44.8486 34.7080   8
 -42  29   4 49.4543 26.5481   4
 -13  42  -4 20.2618 27.4098   8
 -42  29   1 133.693 33.7322   4
 -13  42  -1 36.8701 39.1021   8
 -13  42   2 51.7409 38.4761   8
 -42  29  -2 50.9235 32.3162   4
 -42  28   2 198.634 34.0109   4
 -14  42  -2 22.4679 35.9870   8
 -42  28  -1 439.712 52.0447   4
 -14  42   1 352.042 60.7254   8
 -14  42   4 87.8759 35.4016   8
 -42  28  -4 37.9540 28.9282   4
 -42  27   3-9.49996 29.5744   4
 -15  42  -3 12.0169 33.7446   8
 -15  42   0 12.3921 42.5118   8
 -42  27   0-7.13970 31.4631   4
 -15  42   3-60.1363 39.8907   8
 -42  27  -3 1.11348 29.1624   4
 -42  26   4 25.9663 27.1631   4
 -16  42  -4 2.88201 33.8773   8
 -42  26   1 246.885 38.0232   4
 -16  42  -1 63.4627 43.5590   8
 -16  42   2 6.52178 40.9587   8
 -42  26  -2 27.4624 29.2097   4
 -42  26  -5 3.40590 19.3588   4
 -16  42   5 12.2602 31.0311   8
 -17  42  -5 15.3262 29.5907   8
 -42  25   2 19.9823 31.0410   4
 -17  42  -2-32.3969 37.9495   8
 -17  42   1 200.551 51.0212   8
 -42  25  -1 235.182 37.8126   4
 -17  42   4 105.710 38.8459   8
 -42  25  -4 52.3373 23.9398   4
 -42  24   3 9.06324 30.1698   4
 -18  42  -3-26.1064 39.7255   8
 -42  24   0 242.205 39.6813   4
 -18  42   0 153.618 51.3269   8
 -18  42   3 188.641 44.1083   8
 -42  24  -3 87.2294 28.1994   4
 -42  23   4 94.1845 29.2240   4
 -19  42  -4 11.5568 38.9894   8
 -42  23   1 9.39836 33.1388   4
 -19  42  -1 23.2627 42.1921   8
 -19  42   2 126.076 47.5574   8
 -42  23  -2 117.624 30.8563   4
 -42  23  -5 17.2941 15.7891   4
 -19  42   5 10.6981 32.5330   8
 -42  22   2 97.1507 35.5951   4
 -42  22  -1 59.6113 31.8233   4
 -42  22  -4 15.5459 19.1849   4
 -42  21   3 350.494 47.7175   4
 -42  21   0 184.364 39.6414   4
 -42  21  -3 15.7218 23.8865   4
 -42  20   1 32.9968 34.8914   4
 -42  20  -2-6.01540 27.3447   4
 -42  20  -5 18.2245 13.5311   4
 -23  42  -5 38.8939 39.3128   8
 -42  19   2 134.986 37.7037   4
 -23  42  -2 1.88794 44.8366   8
 -23  42   1 29.4917 45.4612   8
 -42  19  -1 97.1767 34.0030   4
 -23  42   4-39.8796 37.2260   8
 -42  19  -4 2.05923 17.2861   4
 -42  18   3-23.8328 33.5173   4
 -24  42  -3-10.0610 46.1311   8
 -42  18   0 516.867 59.4501   4
 -24  42   0 302.041 63.8906   8
 -24  42   3 91.8100 40.2213   8
 -42  18  -3 3.66278 23.7830   4
 -25  42  -4 26.8033 49.1009   8
 -42  17   1 20.6352 39.9868   4
 -25  42  -1 21.7113 42.3301   8
 -25  42   2 75.1109 43.5744   8
 -42  17  -2 61.9510 29.9155   4
 -25  42   5 98.4827 32.8634   8
 -26  42  -5 6.02216 44.3060   8
 -42  16   2 74.8859 40.5733   4
 -26  42  -2 13.6729 43.7026   8
 -26  42   1 36.8619 43.3410   8
 -42  16  -1-74.3934 38.2036   4
 -26  42   4-10.6070 34.7813   8
 -42  16  -4 19.9621 16.3540   4
 -27  42  -3-53.1753 48.2370   8
 -42  15   0 178.746 47.8644   4
 -27  42   0 94.2189 46.6716   8
 -27  42   3 52.8249 37.4663   8
 -42  15  -3-1.19850 22.5438   4
 -28  42  -4-5.54008 48.3402   8
 -28  42  -1-13.7396 43.4528   8
 -42  14  -2 159.772 37.6840   4
 -28  42   5 118.959 29.9918   8
 -29  42  -2-0.91240 42.9574   8
 -29  42   1 61.6296 42.2169   8
 -29  42   4 27.6542 32.1039   8
 -30  42  -3-16.1693 45.8851   8
 -30  42   0 36.9007 41.0501   8
 -30  42   3 69.5959 34.5147   8
 -31  42  -4-26.0336 43.7123   8
 -31  42  -1 40.9877 42.5908   8
 -31  42   2 30.7186 34.9240   8
 -32  42  -2-8.66199 41.7985   8
 -32  42   1 170.512 32.3960   4
 -32  42   1 96.1503 39.6407   8
 -32  42   4 6.07916 26.8972   8
 -33  42  -3-89.8381 41.3862   8
 -33  42   0-12.9676 29.5826   4
 -33  42   0-29.3818 37.3671   8
 -33  42   3 57.7446 29.9424   8
 -34  42  -1-9.74629 28.9249   4
 -34  42  -1-27.2174 35.7651   8
 -34  42   2 45.7892 28.1571   4
 -34  42   2-7.92785 29.8551   8
 -35  42  -2 78.4177 30.0334   4
 -35  42  -2 43.5314 33.5254   8
 -35  42   1 188.238 34.2411   4
 -35  42   1 83.3426 32.6070   8
 -36  42   0 9.57505 30.7540   4
 -36  42   0 4.78733 28.4791   8
 -37  42  -1 51.1359 31.4975   4
 -37  42   2 281.411 40.4153   4
 -38  42   1 147.066 34.4682   4
 -39  42   0 16.2277 31.1231   4
 -43  40   1 21.0694 28.8444   4
 -43  39   2 6.51597 25.7922   4
 -43  39  -1 2.56335 34.4258   4
 -43  38   0 228.748 40.4155   4
 -43  37   1-15.3127 30.5746   4
 -43  37  -2 28.9615 36.8300   4
 -43  36   2 48.2730 29.0467   4
  -7  43   1 36.5736 25.6526   8
 -43  36  -1 132.158 37.1700   4
 -43  35   0 125.922 35.6476   4
  -8  43   0 68.8727 30.2264   8
 -43  35  -3 44.6304 36.4812   4
  -9  43  -1-24.7369 28.8457   8
  -9  43   2-7.31309 29.0803   8
 -43  34  -2 29.3061 34.7382   4
 -10  43  -2 66.2772 29.9805   8
 -10  43   1 60.3662 32.6640   8
 -43  33  -4-16.9351 31.4198   4
 -43  32   3 16.7008 26.0411   4
 -11  43  -3-3.47508 24.1125   8
 -11  43   0 50.5687 34.7049   8
 -11  43   3 3.14123 30.6658   8
 -43  31   4 300.408 38.3494   4
 -43  31   1 16.8315 29.5310   4
 -12  43  -1 75.7307 35.2613   8
 -12  43   2 115.548 36.6702   8
 -43  30   2 24.1295 29.9819   4
 -13  43  -2 26.5030 31.8541   8
 -13  43   1 25.5463 38.6998   8
 -43  30  -1-12.8541 30.5065   4
 -13  43   4-5.31297 30.1035   8
 -43  30  -4 6.12315 27.0863   4
 -43  29   3 103.148 28.4101   4
 -14  43  -3 16.8362 28.9668   8
 -43  29   0 74.1344 32.2273   4
 -14  43   0 17.6717 39.2219   8
 -14  43   3 10.3858 34.5505   8
 -43  29  -3 20.6100 28.2283   4
 -43  28   4-6.99192 24.3769   4
 -15  43  -4 3.58321 26.6810   8
 -43  28   1 12.5614 29.5541   4
 -15  43  -1 14.0389 39.2531   8
 -15  43   2-10.3624 38.6685   8
 -43  28  -2 16.5392 28.3873   4
 -43  27   2-5.29066 29.9408   4
 -16  43  -2-0.37527 33.9210   8
 -16  43   1 7.03192 42.8216   8
 -43  27  -1 28.1116 29.2702   4
 -16  43   4 27.7384 33.7755   8
 -43  27  -4 22.2250 22.2858   4
 -43  26   3 97.9506 29.1178   4
 -17  43  -3 1.07759 34.1850   8
 -43  26   0 10.8356 30.2024   4
 -17  43   0-6.42066 41.3843   8
 -17  43   3 1.67306 38.5261   8
 -43  26  -3 11.8727 25.3134   4
 -43  25   4 80.2886 26.4265   4
 -18  43  -4 6.11399 32.5366   8
 -43  25   1 87.0348 31.8370   4
 -18  43  -1 18.4700 40.5641   8
 -18  43   2 7.70472 40.9821   8
 -43  25  -2 46.7430 26.4315   4
 -18  43   5 18.9093 29.0399   8
 -43  24   2 55.9428 31.7981   4
 -19  43  -2 9.10228 38.5226   8
 -19  43   1 162.524 50.5546   8
 -43  24  -1 203.147 35.5347   4
 -19  43   4 93.6966 37.5559   8
 -43  24  -4 35.9929 19.6120   4
 -43  23   3 56.8156 29.5570   4
 -20  43  -3-32.8537 37.5070   8
 -43  23   0 130.856 34.4084   4
 -20  43   0 33.0495 45.2925   8
 -20  43   3-22.7063 39.7327   8
 -43  23  -3 27.3207 22.2293   4
 -43  22   1 59.1302 33.4808   4
 -43  22  -2-5.28432 25.0860   4
 -43  21   2-23.3876 33.9186   4
 -43  21  -1 463.285 56.3675   4
 -43  21  -4 4.33076 16.6831   4
 -43  20   3 53.4939 32.0835   4
 -23  43  -3-0.44271 41.9841   8
 -43  20   0 29.2019 34.9903   4
 -23  43   0 13.2184 44.9805   8
 -23  43   3 112.337 41.0849   8
 -43  20  -3 59.5533 22.1449   4
 -24  43  -4 38.9567 41.8574   8
 -43  19   1 44.0420 36.4969   4
 -24  43  -1-29.8571 45.0248   8
 -24  43   2 150.766 44.2316   8
 -43  19  -2 104.517 29.2288   4
 -24  43   5 38.7401 28.9397   8
 -43  18   2 56.0458 37.9128   4
 -25  43  -2 0.91844 42.3005   8
 -25  43   1-10.1200 44.0356   8
 -43  18  -1 19.8887 33.1515   4
 -25  43   4-8.14582 34.5826   8
 -43  18  -4 6.69537 15.2170   4
 -26  43  -3 5.11069 44.3411   8
 -43  17   0 275.811 45.5249   4
 -26  43   0 66.9721 47.3238   8
 -26  43   3 23.3670 37.0520   8
 -43  17  -3-0.35306 19.7239   4
 -27  43  -4 33.1223 43.4771   8
 -43  16   1 6.04247 42.0852   4
 -27  43  -1 36.3921 45.0318   8
 -27  43   2 155.452 41.5041   8
 -43  16  -2 59.6711 30.4606   4
 -28  43  -2-91.6712 45.1936   8
 -28  43   1-55.6228 42.8564   8
 -28  43   4 28.2603 31.4245   8
 -29  43  -3-18.4053 44.2368   8
 -29  43   0-5.82811 43.2947   8
 -29  43   3 119.255 36.2957   8
 -30  43  -4-5.23305 43.2066   8
 -30  43  -1 28.9201 43.5960   8
 -30  43   2 33.3242 35.1336   8
 -31  43  -2-11.4509 44.3862   8
 -31  43   1-53.7908 38.9255   8
 -31  43   4-18.0320 27.5910   8
 -32  43  -3-39.2391 43.3504   8
 -32  43   0 1.63144 39.1052   8
 -32  43   3 31.2063 30.2756   8
 -33  43  -1 15.4386 38.8691   8
 -33  43   2-6.14833 31.2999   8
 -34  43  -2-32.1585 38.0792   8
 -34  43   1 14.2258 30.6072   8
 -35  43   0 36.6479 27.9526   4
 -35  43   0 21.1318 32.3476   8
 -37  43   1 28.8464 27.2608   4
 -44  39   1-15.7217 27.7156   4
 -44  38  -1-30.2285 33.8009   4
 -44  37   0 5.15543 30.2411   4
 -44  36   1 7.68883 28.7011   4
 -44  36  -2 8.31571 33.7912   4
  -9  44   1 8.34082 26.2947   8
 -44  35  -1 19.1591 33.5007   4
 -10  44   0 168.796 35.4481   8
 -44  34  -3 61.0464 32.3370   4
 -11  44  -1 14.3791 29.5742   8
 -11  44   2-9.80673 29.4150   8
 -12  44  -2 154.866 41.4365   8
 -44  32   2 407.514 40.7437   4
 -12  44   1 4.13869 32.9972   8
 -44  31   3-13.1197 24.1600   4
 -13  44  -3 24.6917 25.0045   8
 -44  31   0 59.5809 30.4980   4
 -13  44   0 33.4951 36.7538   8
 -13  44   3 13.7601 30.9374   8
 -44  31  -3 20.4503 27.5806   4
 -44  30   1 70.2365 29.0763   4
 -14  44  -1 27.9903 36.1020   8
 -14  44   2 12.0744 34.4482   8
 -44  30  -2-24.2636 28.0520   4
 -44  29   2 56.6862 28.3660   4
 -15  44  -2 23.8142 32.1280   8
 -15  44   1 43.2321 39.2141   8
 -44  29  -1 18.0812 28.7930   4
 -15  44   4 52.3272 30.2297   8
 -44  29  -4 43.9022 21.7793   4
 -44  28   3 32.9893 25.4494   4
 -16  44  -3-14.8361 29.5812   8
 -44  28   0 253.507 37.4756   4
 -16  44   0 145.901 46.4276   8
 -16  44   3 13.5995 33.8892   8
 -44  28  -3 29.5440 23.5407   4
 -17  44  -4-2.41931 25.9844   8
 -44  27   1 117.272 30.3648   4
 -17  44  -1 13.4863 40.5818   8
 -17  44   2 0.81281 37.8677   8
 -44  27  -2 15.1239 25.1838   4
 -44  26   2 67.4529 30.1090   4
 -18  44  -2 32.8703 36.0102   8
 -18  44   1-5.66411 43.7874   8
 -44  26  -1 3.40599 26.9556   4
 -18  44   4 18.2288 32.3614   8
 -44  26  -4 14.2991 18.1739   4
 -44  25   3 64.7268 27.6837   4
 -19  44  -3 14.2711 33.2034   8
 -44  25   0 24.5104 30.2788   4
 -19  44   0 0.45667 41.2025   8
 -19  44   3 26.5937 37.3411   8
 -44  25  -3 20.0485 20.5851   4
 -20  44  -4-45.1864 31.0696   8
 -44  24   1-26.9024 30.2348   4
 -20  44  -1 29.2862 41.5829   8
 -20  44   2 158.851 42.3433   8
 -44  24  -2 98.6222 26.9194   4
 -44  23   2 0.28916 30.3100   4
 -44  23  -1 73.7215 29.1063   4
 -44  23  -4 20.8708 16.0209   4
 -44  22   3 114.787 31.7546   4
 -44  22   0 69.3570 32.5247   4
 -44  22  -3 5.00260 18.8004   4
 -23  44  -4-7.22439 34.4787   8
 -44  21   1 55.4480 34.2322   4
 -44  21  -2 124.774 27.6917   4
 -44  20   2 181.994 37.3149   4
 -24  44  -2-0.43816 41.8892   8
 -24  44   1 65.1610 45.3168   8
 -44  20  -1 19.0587 29.6377   4
 -25  44  -3 1.68433 39.6750   8
 -44  19   0 45.3225 35.6045   4
 -25  44   0 13.1286 42.6155   8
 -25  44   3 21.9815 36.7156   8
 -44  19  -3-8.20923 17.7270   4
 -26  44  -4 57.5559 39.2451   8
 -44  18   1 12.3441 38.5821   4
 -26  44  -1-61.6460 46.2337   8
 -26  44   2 2.85835 38.3512   8
 -44  18  -2 8.50249 24.1941   4
 -27  44  -2 48.2868 43.7974   8
 -44  17  -1 114.101 35.3616   4
 -27  44   1 53.9832 45.0537   8
 -27  44   4 98.8338 33.2381   8
 -28  44  -3 44.7085 42.8242   8
 -28  44   0-29.3689 43.3456   8
 -28  44   3-17.3475 33.2341   8
 -29  44  -1-11.2586 44.1119   8
 -29  44   2 27.8766 35.3131   8
 -30  44  -2 6.14967 45.6415   8
 -30  44   1 22.2840 38.6019   8
 -31  44  -3-26.6872 44.3537   8
 -31  44   0 75.3017 42.4050   8
 -31  44   3 136.827 34.3836   8
 -32  44  -1-18.9521 40.1844   8
 -32  44   2-12.4090 32.1717   8
 -33  44   1 22.3864 33.0528   8
 -34  44   0 39.4203 36.2027   8
 -35  44  -1 44.1851 35.5861   8
 -45  37  -1 192.620 37.4577   4
 -45  36   0 25.5271 28.3075   4
 -45  35  -2 4.24916 30.1329   4
 -45  34   2 44.6134 25.7632   4
 -11  45   1 44.1077 27.8154   8
 -45  33   3 26.6983 22.3305   4
 -45  33   0 24.5342 28.2083   4
 -12  45   0-5.10493 31.0851   8
 -45  32   1 93.2889 28.8841   4
 -13  45  -1 78.7138 32.4745   8
 -13  45   2 6.92085 30.2722   8
 -45  32  -2-24.2197 27.1497   4
 -45  31   2 72.7428 26.5282   4
 -14  45  -2 9.57620 30.3727   8
 -14  45   1 39.4730 33.9431   8
 -45  31  -1 48.8698 29.0207   4
 -45  30   3 25.2184 23.4525   4
 -15  45  -3 8.20103 25.9585   8
 -45  30   0 109.132 29.6100   4
 -15  45   0 9.23082 36.9665   8
 -15  45   3 16.9473 30.9469   8
 -45  30  -3 41.8876 22.9787   4
 -45  29   1 0.77657 27.3157   4
 -16  45  -1-34.5230 36.1311   8
 -16  45   2-7.69764 34.1392   8
 -45  29  -2 2.75708 24.5063   4
 -45  28   2 97.8895 28.0546   4
 -17  45  -2 23.2542 34.6489   8
 -17  45   1-9.25426 38.7184   8
 -45  28  -1-3.24625 26.7878   4
 -45  27   3 12.6016 24.3694   4
 -18  45  -3 6.03500 28.7971   8
 -45  27   0 21.3113 27.8702   4
 -18  45   0 15.4628 40.1140   8
 -18  45   3 92.0790 34.9959   8
 -45  27  -3 57.4414 21.1597   4
 -45  26   1 113.182 29.4170   4
 -19  45  -1-56.3536 41.0215   8
 -19  45   2-3.97520 37.3252   8
 -45  26  -2-9.84751 21.7722   4
 -45  25   2 47.6147 29.0711   4
 -20  45  -2 35.9080 36.9839   8
 -20  45   1 21.5176 41.9329   8
 -45  25  -1-13.0999 26.0271   4
 -20  45   4 15.7135 30.9398   8
 -21  45  -3 5.47630 32.8424   8
 -45  24   0-2.42026 28.6911   4
 -21  45   0 7.29398 41.8379   8
 -21  45   3-36.8237 35.1942   8
 -45  24  -3 16.9690 17.5505   4
 -45  23   1 301.608 43.0812   4
 -45  23  -2 10.2969 21.6470   4
 -45  22   2 115.900 33.5034   4
 -45  22  -1-5.39957 26.5047   4
 -24  45  -3-10.2436 35.9127   8
 -45  21   0-24.7899 30.2233   4
 -24  45   0 4.64336 43.3943   8
 -24  45   3-12.2667 34.5883   8
 -45  21  -3-10.2998 16.2300   4
 -45  20   1 10.0041 33.4902   4
 -25  45  -1-18.4845 45.1115   8
 -25  45   2 176.596 40.7986   8
 -45  20  -2 86.5675 24.8394   4
 -26  45  -2 46.3843 43.3217   8
 -45  19  -1 14.4085 28.0740   4
 -26  45   1-17.6618 42.2519   8
 -26  45   4 24.2646 29.6049   8
 -27  45  -3 24.7064 39.9142   8
 -27  45   0-41.6942 42.7990   8
 -27  45   3 28.2986 33.2045   8
 -28  45  -1 5.53853 43.1121   8
 -28  45   2 38.7995 35.6988   8
 -29  45  -2 27.5833 45.4877   8
 -29  45   1 180.124 44.5295   8
 -30  45  -3-4.89066 43.4327   8
 -30  45   0-42.9331 42.5983   8
 -30  45   3 4.08116 30.1909   8
 -31  45  -1 26.6412 42.5739   8
 -31  45   2 15.7613 32.9935   8
 -32  45  -2 27.5401 43.0408   8
 -32  45   1 47.2818 34.6308   8
 -33  45   0 20.3369 38.0492   8
 -46  34   1-28.3502 25.6547   4
 -46  33   2 61.4286 24.2372   4
 -13  46   1 111.681 31.9866   8
 -46  33  -1 169.982 31.1821   4
 -46  32   0-2.86316 25.5108   4
 -14  46   0-5.55159 31.7744   8
 -46  31   1 114.661 27.1105   4
 -15  46  -1 50.7857 32.5441   8
 -46  31  -2 1.52932 23.3239   4
 -46  30   2 45.2037 24.7871   4
 -16  46  -2 13.7008 29.8438   8
 -16  46   1 31.3321 33.1184   8
 -46  30  -1 11.8801 25.6059   4
 -46  29   0 27.1560 25.5089   4
 -17  46   0 45.6649 37.4576   8
 -17  46   3 3.13085 29.4561   8
 -46  29  -3 13.2531 18.7209   4
 -46  28   1 67.2478 26.2511   4
 -18  46  -1 25.2349 36.0885   8
 -18  46   2-8.98548 33.3734   8
 -46  28  -2 0.19675 21.4919   4
 -46  27   2-2.81028 24.8120   4
 -19  46  -2-4.72064 34.4807   8
 -19  46   1 17.8977 38.0408   8
 -46  27  -1 8.19222 24.3656   4
 -20  46  -3 25.6355 30.1105   8
 -46  26   0 148.782 29.7389   4
 -20  46   0 104.015 43.7421   8
 -20  46   3 104.576 33.5485   8
 -46  26  -3 12.4045 16.6904   4
 -46  25   1 186.064 31.2729   4
 -21  46  -1 27.6698 41.7962   8
 -21  46   2 46.3172 36.0980   8
 -46  25  -2-11.7522 19.4930   4
 -46  24   2 113.187 29.6807   4
 -46  24  -1-9.71315 24.2350   4
 -46  23   0 84.3435 28.2367   4
 -46  22   1 8.99333 29.2074   4
 -46  22  -2 25.2508 19.4444   4
 -25  46  -2 26.0412 41.0860   8
 -46  21  -1-14.2593 24.2605   4
 -25  46   1 43.1883 40.5140   8
 -26  46  -3-9.25580 36.5882   8
 -46  20   0 13.4890 28.3082   4
 -26  46   0 20.1440 42.5188   8
 -26  46   3-4.72091 31.5885   8
 -27  46  -1 105.204 44.7915   8
 -27  46   2 13.3451 34.8983   8
 -28  46  -2-7.32869 43.9589   8
 -28  46   1 20.6246 38.4584   8
 -29  46   0 43.3677 42.6854   8
 -30  46  -1-11.8655 43.2660   8
 -30  46   2 118.466 36.5120   8
 -31  46  -2 48.1301 43.2276   8
 -31  46   1-23.7860 34.4897   8
 -32  46   0 36.5491 39.1812   8
 -47  33   1 20.9495 22.7261   4
 -47  32  -1 14.0100 23.0799   4
 -47  31   0 50.3057 23.9080   4
 -16  47   0 42.2229 31.9452   8
 -47  30   1 72.7502 24.4193   4
 -17  47  -1 8.35189 32.0639   8
 -47  29  -1 84.4300 23.5368   4
 -18  47   1 20.8924 33.6343   8
 -47  28   0-2.30389 22.7602   4
 -19  47   0 33.6998 36.9540   8
 -47  27   1 178.148 28.8839   4
 -20  47  -1 78.2854 38.5197   8
 -20  47   2 25.6517 33.1689   8
 -47  27  -2 2.49506 18.3054   4
 -21  47  -2-1.75668 33.3801   8
 -47  26  -1 95.5118 24.3894   4
 -21  47   1 116.186 39.2654   8
 -47  25   0 32.9490 23.2167   4
 -22  47   0-45.4485 40.8374   8
 -47  24   1 17.2406 25.0547   4
 -47  23  -1-14.5768 21.2756   4
 -25  47   0 69.4429 42.6024   8
 -26  47  -1 11.7627 40.3616   8
 -26  47   2-2.14866 34.5206   8
 -27  47  -2-18.8938 39.4779   8
 -27  47   1 60.2835 37.5156   8
 -28  47   0-10.3364 41.5340   8
 -29  47  -1 4.27853 40.9267   8
 -29  47   2 77.6416 33.7474   8
 -30  47   1 12.7194 34.1446   8
 -31  47   0 16.9842 38.3459   8
 -20  48   1 22.7782 31.3450   8
 -21  48   0-0.36795 35.3856   8
 -22  48  -1 0.35666 33.8563   8
 -25  48  -1 13.1098 37.5012   8
 -26  48   1 29.8328 34.5084   8
 -27  48   0 48.1315 38.5530   8
   0   0   0    0.00    0.00   0

TITL De-CoHA3-A in R-3
REM R-3 (#148 in standard setting)
CELL 1.54184  41.862498  41.862498   9.588788  90.0000  90.0000 120.0000
ZERR  203.00   0.002701   0.002701   0.000546   0.0000   0.0000   0.0000
LATT  3
SYMM -y, x-y, z
SYMM -x+y,-x, z
SFAC C H N O Co
UNIT 203.00 203.00 203.00 203.00 203.00
TREF
HKLF 4
END
;
_shelx_hkl_checksum              90480
_shelx_fab_file
;
0 0 3 18.1708 50.7962
0 0 6 0.1145 -43.4093
0 1 -10 -16.4883 4.1223
0 1 -7 0.4427 -14.0021
0 1 -4 -7.3470 22.4167
0 1 5 0.9918 -7.1778
0 1 8 -2.6712 -2.6078
0 2 -8 3.3571 14.7511
0 2 -5 1.6920 -21.9589
0 2 -2 -11.8274 21.8353
0 2 1 -68.4323 -8.5735
0 2 4 7.3724 -6.8628
0 2 7 -3.3422 13.5254
0 2 10 -0.9232 -13.2904
0 3 -9 2.6562 12.9884
0 3 -6 -4.4073 -15.2638
0 3 -3 -17.6927 7.7259
0 3 0 46.6167 1.0002
0 3 3 12.2652 -7.2425
0 3 6 0.6975 11.5416
0 4 -7 -0.4233 -16.8107
0 4 -4 16.1865 19.9348
0 4 -1 -34.0056 -16.4306
0 4 2 -0.4984 5.8773
0 4 5 4.7619 5.9903
0 4 8 2.7402 -10.3122
0 5 -8 4.4885 -11.4921
0 5 -5 -2.0447 13.5060
0 5 -2 16.5979 -7.2464
0 5 1 20.3881 -5.0363
0 5 4 4.8889 14.2429
0 5 7 -0.3528 -15.3145
0 5 10 11.4314 10.7244
0 6 -9 3.9041 9.5431
0 6 -6 4.3514 -9.0302
0 6 -3 10.2666 3.4897
0 6 0 -21.1252 5.3974
0 6 3 -17.5115 -13.7501
0 6 6 1.6700 16.4375
0 6 9 -8.8022 -11.0702
0 7 -10 -6.5648 0.6193
0 7 -7 3.4010 10.4189
0 7 -4 1.5423 -27.0227
0 7 -1 1.3748 38.3770
0 7 2 -39.7382 -37.4247
0 7 5 -2.0271 26.2157
0 7 8 -1.6974 -10.9640
0 8 -8 -1.5192 8.8674
0 8 -5 2.4455 -16.0507
0 8 -2 -18.6568 17.5838
0 8 1 24.0419 -12.7696
0 8 4 12.9791 5.0329
0 8 7 0.0084 2.2226
0 8 10 1.7621 -8.3795
0 9 -9 2.2540 -3.1988
0 9 -6 -1.7149 7.8592
0 9 -3 -1.0910 -9.4834
0 9 0 25.8122 4.9192
0 9 3 -2.0519 -1.0660
0 9 6 -5.6431 -3.5058
0 9 9 3.6415 5.8828
0 10 -10 -3.6558 -5.8272
0 10 -7 0.6649 9.8751
0 10 -4 -4.2795 -12.1115
0 10 -1 7.1426 8.0873
0 10 2 -29.1454 -1.5613
0 10 5 -4.7947 -5.3490
0 10 8 -0.1457 7.7828
0 11 -8 -0.3915 10.4967
0 11 -5 -0.8682 -16.0116
0 11 -2 -0.9939 16.1023
0 11 1 -2.2909 -9.9193
0 11 4 -2.2818 0.8765
0 11 7 -0.8445 6.1662
0 11 10 -1.1117 -6.6164
0 12 -9 1.8074 6.6046
0 12 -6 -2.5049 -11.0988
0 12 -3 -5.9845 8.1914
0 12 0 10.7290 -1.3994
0 12 3 -3.9779 -6.9666
0 12 6 -2.5341 11.7998
0 12 9 -4.3130 -12.0505
0 13 -10 10.1015 -2.0772
0 13 -7 0.9567 7.9485
0 13 -4 3.8164 -7.3726
0 13 -1 5.9891 1.5660
0 13 2 4.7267 7.3069
0 13 5 8.7332 -11.4667
0 13 8 -0.4095 10.9432
0 14 -8 2.8572 0.2103
0 14 -5 0.0224 11.4218
0 14 -2 -7.5024 -27.2833
0 14 1 -2.1774 37.2917
0 14 4 16.6177 -32.4345
0 14 7 -0.1489 19.1896
0 14 10 -2.0967 -6.5665
0 15 -9 7.5404 -5.4146
0 15 -6 -3.8720 11.9669
0 15 -3 -2.2858 -17.1259
0 15 0 -2.4970 16.3905
0 15 3 -5.4189 -9.2915
0 15 6 1.9854 1.2267
0 15 9 -2.7993 2.6915
0 16 -10 -5.5136 3.9843
0 16 -7 1.7165 -7.6833
0 16 -4 1.2447 6.4627
0 16 -1 1.8031 -3.0160
0 16 2 -3.6575 -2.8250
0 16 5 0.7571 7.3180
0 16 8 -1.9224 -7.5307
0 17 -8 -1.7277 -7.4576
0 17 -5 3.3289 8.2310
0 17 -2 2.9157 -4.4157
0 17 1 4.4817 -3.0909
0 17 4 4.6861 9.0959
0 17 7 -16.3786 -8.5205
0 17 10 -14.7135 4.4877
0 18 -9 2.8272 -8.2222
0 18 -6 -4.6247 14.6796
0 18 -3 -1.7921 -14.6329
0 18 0 -6.0522 9.0195
0 18 3 -1.7842 1.6199
0 18 6 -6.5369 -7.5121
0 18 9 -0.0943 9.5818
0 19 -7 10.2913 7.7888
0 19 -4 3.0171 -4.3635
0 19 -1 2.5121 -3.1226
0 19 2 -1.2193 11.5239
0 19 5 4.5390 -14.3130
0 19 8 -2.0820 12.2660
0 20 -8 6.7266 -5.2101
0 20 -5 -15.4689 5.1541
0 20 -2 -1.3597 -2.6810
0 20 1 -0.1384 -1.4836
0 20 4 -2.4952 4.7174
0 20 7 -1.0846 -5.6296
0 21 -9 0.4117 -1.6735
0 21 -6 2.5361 -8.1064
0 21 -3 -0.9450 18.7584
0 21 0 -2.9794 -27.4533
0 21 3 -2.1673 26.0048
0 21 6 3.9658 -16.5284
0 21 9 0.4946 6.9882
0 22 -7 2.0473 -10.2466
0 22 -4 -1.7410 16.5741
0 22 -1 -1.9487 -17.7476
0 22 2 2.8362 13.6362
0 22 5 9.4582 -5.5826
0 22 8 -0.6847 -0.9502
0 23 -8 -5.2597 -0.5748
0 23 -5 -10.4479 -1.1565
0 23 -2 1.3200 0.0833
0 23 1 -3.0409 1.5138
0 23 4 2.6796 -1.9634
0 23 7 -0.3737 2.7883
0 24 -9 1.3207 2.9723
0 24 -6 -6.6171 -4.6176
0 24 -3 12.2093 3.8098
0 24 0 0.7724 0.5365
0 24 3 3.7031 -3.7412
0 24 6 -2.5357 6.5057
0 24 9 -3.5914 -4.4047
0 25 -7 1.5980 -9.6146
0 25 -4 7.4558 11.2313
0 25 -1 3.6496 -8.5085
0 25 2 3.9174 2.8192
0 25 5 0.2431 2.7091
0 25 8 8.0140 -8.0654
0 26 -8 -0.4070 -5.8927
0 26 -5 1.3112 6.4299
0 26 -2 -6.1148 -1.2471
0 26 1 -1.6495 -6.6027
0 26 4 1.0267 11.4277
0 26 7 1.8193 -12.8402
0 27 -6 0.0345 -4.4981
0 27 -3 1.6544 5.6357
0 27 0 -0.5865 -3.7217
0 27 3 2.5729 0.0008
0 27 6 -0.4012 1.3401
0 28 -7 2.5474 2.5296
0 28 -4 12.5481 -10.9380
0 28 -1 4.3250 19.6207
0 28 2 5.9864 -21.9592
0 28 5 5.4157 17.5885
0 28 8 -3.0972 -8.6736
0 29 -8 -0.8156 6.9499
0 29 -5 -1.0353 -10.7917
0 29 -2 -3.7681 14.7724
0 29 1 -1.3292 -11.7013
0 29 4 -8.6381 5.6338
0 29 7 10.6617 0.0864
0 30 -6 6.0174 -0.7425
0 30 -3 3.8584 -0.5394
0 30 0 1.2751 0.2203
0 30 3 3.3593 1.4634
0 30 6 2.1038 -2.4547
0 31 -7 2.1418 4.2086
0 31 -4 3.6255 -4.1085
0 31 -1 -3.5092 0.8553
0 31 2 2.9626 3.1859
0 31 5 6.1585 -5.5925
0 32 -5 4.8927 -9.0673
0 32 -2 4.9494 7.9068
0 32 1 -0.7614 -2.5271
0 32 4 -4.0019 -3.4599
0 32 7 -10.0941 5.0045
0 33 -6 -1.3035 -3.4397
0 33 -3 6.7358 2.5864
0 33 0 -0.9934 3.9118
0 33 3 4.8271 -10.3868
0 33 6 -15.1071 13.2535
0 34 -4 0.1523 -2.1604
0 34 -1 10.4073 3.2990
0 34 2 1.1099 -3.0750
0 34 5 -0.0062 1.3275
0 35 -2 -13.1456 -11.9500
0 35 1 1.7421 15.6361
0 35 4 3.1795 -11.8009
0 36 -3 -1.0052 -12.5668
0 36 0 -7.4136 12.2250
0 36 3 -8.7923 -8.0543
0 37 -4 7.0565 -5.1942
0 37 -1 0.1828 4.1329
0 37 2 5.8315 -4.0690
0 38 -2 -2.5868 0.1166
0 38 1 -2.7574 -1.3235
0 38 4 -3.4695 2.8708
0 39 -3 -9.9449 -2.8664
0 39 0 -11.6675 0.9852
0 39 3 -18.2280 0.6493
0 40 -1 -2.9808 -5.2291
0 40 2 -5.0234 8.2974
0 41 1 0.2009 4.5478
1 1 -6 2.8443 11.2656
1 1 -3 -18.6066 -9.5771
1 1 3 6.3758 9.6407
1 1 6 0.7870 -11.9866
1 2 -10 -1.5031 -3.1516
1 2 -7 0.2723 2.9956
1 2 -4 -2.3974 -0.3508
1 2 -1 -19.2456 -4.5865
1 2 2 13.6383 8.9501
1 2 5 4.3864 -8.1671
1 2 8 0.9793 5.7632
1 3 -8 -8.9526 -9.3413
1 3 -5 6.4186 2.2717
1 3 -2 15.1362 9.9845
1 3 1 -63.2697 -18.9301
1 3 4 -18.4867 20.8761
1 3 7 7.0191 -18.9703
1 3 10 -4.3915 12.2716
1 4 -9 2.2050 6.0632
1 4 -6 3.5294 -19.6778
1 4 -3 8.3347 34.8950
1 4 0 -0.7179 -38.3777
1 4 3 -2.8717 26.8588
1 4 6 -4.3909 -14.2236
1 4 9 5.5457 3.0527
1 5 -10 -9.9389 9.2165
1 5 -7 9.9134 -9.5846
1 5 -4 10.6318 8.8243
1 5 -1 19.7557 -3.3135
1 5 2 51.1737 -4.3027
1 5 5 0.1778 6.4421
1 5 8 1.7346 -5.2543
1 6 -8 -2.5059 4.1070
1 6 -5 -1.1810 -4.7178
1 6 -2 42.4885 5.0956
1 6 1 -1.7572 -4.1650
1 6 4 -12.7051 1.5991
1 6 7 -2.9883 -0.0142
1 6 10 5.7590 1.9096
1 7 -9 1.7468 4.7266
1 7 -6 -13.7712 -4.6986
1 7 -3 -8.1124 1.9434
1 7 0 -35.6264 0.8842
1 7 3 -9.5137 -2.5923
1 7 6 0.3157 3.8008
1 7 9 -2.1029 -2.9007
1 8 -10 1.2510 4.0570
1 8 -7 -2.5198 -5.1038
1 8 -4 -6.1757 3.8164
1 8 -1 -8.5227 -1.4462
1 8 2 12.2416 -2.7913
1 8 5 -3.8633 5.2118
1 8 8 0.1701 -4.1926
1 9 -8 -3.4118 0.6221
1 9 -5 -6.1651 -3.0093
1 9 -2 10.8492 5.9411
1 9 1 -9.5348 -9.1593
1 9 4 3.8163 9.7506
1 9 7 -0.8058 -6.9255
1 9 10 1.5009 5.1850
1 10 -9 -7.5780 7.4715
1 10 -6 3.0273 -12.3493
1 10 -3 1.6151 14.5515
1 10 0 -2.7033 -10.2414
1 10 3 4.8632 1.9171
1 10 6 0.0510 4.7066
1 10 9 2.3920 -5.4881
1 11 -10 2.4954 4.2211
1 11 -7 6.9909 -0.5223
1 11 -4 -2.1798 -8.7201
1 11 -1 -7.6253 20.0474
1 11 2 -6.5804 -25.8713
1 11 5 -21.1126 21.7759
1 11 8 5.5172 -12.4905
1 12 -8 -0.4733 9.1577
1 12 -5 0.6907 -12.2510
1 12 -2 11.0502 11.0603
1 12 1 -13.0983 -5.6300
1 12 4 2.2793 -0.8437
1 12 7 5.0339 5.3584
1 12 10 -8.0350 -8.9708
1 13 -9 -3.1348 -1.4273
1 13 -6 -1.3762 7.1725
1 13 -3 14.4786 -12.1841
1 13 0 1.1320 12.9567
1 13 3 7.9285 -10.3372
1 13 6 5.7365 5.2473
1 13 9 4.1355 -0.7628
1 14 -10 3.9210 -6.8361
1 14 -7 -3.8797 4.8195
1 14 -4 -0.6060 -4.2803
1 14 -1 -14.0907 0.9903
1 14 2 -0.8527 3.3195
1 14 5 -4.5075 -4.9775
1 14 8 -4.4859 4.4706
1 15 -8 -8.9257 4.3556
1 15 -5 -0.5858 -7.3059
1 15 -2 -3.9021 6.0530
1 15 1 -3.0537 -2.5458
1 15 4 -5.2692 -1.5086
1 15 7 -0.0223 2.3987
1 15 10 -2.9086 -2.9332
1 16 -9 -7.8972 4.6072
1 16 -6 -2.6334 -3.2794
1 16 -3 -0.8570 -1.2950
1 16 0 5.2053 6.8999
1 16 3 -1.9563 -10.4020
1 16 6 -8.0129 9.6324
1 16 9 6.5540 -8.4639
1 17 -7 4.6678 7.7439
1 17 -4 4.3204 -8.0618
1 17 -1 0.1980 5.8028
1 17 2 -0.9628 -0.8027
1 17 5 -3.1327 -4.4169
1 17 8 -12.6922 5.4452
1 18 -8 3.8773 -1.4821
1 18 -5 -5.7045 10.1710
1 18 -2 -3.1616 -16.9556
1 18 1 8.4076 20.7749
1 18 4 -3.6383 -16.1505
1 18 7 5.0232 8.7540
1 19 -9 -3.0780 -9.8643
1 19 -6 2.1874 11.9519
1 19 -3 -11.1521 -12.1424
1 19 0 0.9562 8.3123
1 19 3 2.4421 -1.3959
1 19 6 -0.9486 -4.2654
1 19 9 -1.7814 6.2454
1 20 -7 -1.4413 -0.9935
1 20 -4 -7.4437 2.8235
1 20 -1 1.7573 -5.2165
1 20 2 3.1424 5.0955
1 20 5 -0.8034 -4.6144
1 20 8 6.6758 1.5267
1 21 -8 3.4928 -3.5200
1 21 -5 -11.2637 4.2523
1 21 -2 1.1557 -2.6098
1 21 1 -1.6367 1.1347
1 21 4 -5.2757 1.3855
1 21 7 -0.4773 -1.7624
1 22 -9 -0.0309 -4.4566
1 22 -6 -0.3337 5.9695
1 22 -3 10.5514 -5.7257
1 22 0 -3.9661 4.2876
1 22 3 1.7851 0.1605
1 22 6 -10.2350 -1.9373
1 22 9 -8.5313 4.1186
1 23 -7 0.6976 3.2263
1 23 -4 5.6561 -0.1160
1 23 -1 -1.8758 -5.9744
1 23 2 -0.5498 11.5675
1 23 5 -0.3004 -11.8947
1 23 8 -1.6004 10.3605
1 24 -8 0.0499 -4.1260
1 24 -5 -6.1956 10.5584
1 24 -2 1.3413 -11.4179
1 24 1 0.5400 8.6594
1 24 4 -0.2758 -2.9862
1 24 7 -3.0752 -1.0037
1 25 -6 1.9186 -2.0661
1 25 -3 2.6218 8.6307
1 25 0 -1.7814 -14.2193
1 25 3 3.7158 15.0164
1 25 6 -4.4978 -11.2986
1 26 -7 0.9447 -8.4807
1 26 -4 -1.7140 11.1473
1 26 -1 6.1090 -8.9934
1 26 2 -1.8205 3.8082
1 26 5 -0.6794 2.3208
1 26 8 -20.6854 -4.6871
1 27 -8 -0.7681 1.2422
1 27 -5 -11.8248 -2.5947
1 27 -2 6.5169 4.6382
1 27 1 1.9441 -5.9684
1 27 4 0.2559 4.9939
1 27 7 2.7402 -2.6103
1 28 -6 9.6669 -1.6468
1 28 -3 2.9732 2.6602
1 28 0 -3.0309 -0.3963
1 28 3 -8.8671 -0.2853
1 28 6 10.4148 2.3193
1 29 -7 5.5891 -2.9303
1 29 -4 18.1070 4.2313
1 29 -1 1.3595 -3.3594
1 29 2 3.6638 2.2082
1 29 5 -4.3307 0.5726
1 30 -5 -11.5331 1.2160
1 30 -2 2.0818 2.2243
1 30 1 -13.9379 -6.0500
1 30 4 -3.6189 7.8194
1 30 7 -3.7366 -6.9321
1 31 -6 -2.6678 -5.0848
1 31 -3 -2.1661 6.8053
1 31 0 2.4052 -6.5460
1 31 3 1.7815 3.0937
1 31 6 -4.9222 0.7060
1 32 -4 1.2390 -4.2397
1 32 -1 -5.4454 8.7858
1 32 2 -7.5163 -11.6505
1 32 5 -1.0507 8.2957
1 33 -5 15.1551 -11.3146
1 33 -2 10.1928 9.9990
1 33 1 -8.8593 -7.4910
1 33 4 -6.3917 2.5412
1 34 -6 0.3437 -3.2333
1 34 -3 -0.8881 0.9534
1 34 0 5.6236 0.9056
1 34 3 4.1850 -1.1706
1 34 6 -17.0932 1.0511
1 35 -4 0.7808 -1.8792
1 35 -1 -3.1609 1.2909
1 35 2 7.6902 -0.8024
1 35 5 3.9226 1.8798
1 36 -2 -0.2262 3.0711
1 36 1 -13.1601 -1.2151
1 36 4 6.6747 -1.2408
1 37 -3 -1.6687 -1.7218
1 37 0 -7.1459 5.5620
1 37 3 3.6578 -9.0800
1 38 -1 -0.3230 7.4171
1 38 2 5.6240 -4.2879
1 39 -2 4.8235 -5.9159
1 39 1 1.8825 7.8654
1 40 0 4.8337 5.6308
2 1 -8 -3.5650 -4.0289
2 1 -5 -4.4056 23.2310
2 1 -2 47.1261 -43.2708
2 1 1 87.3312 48.7290
2 1 4 2.1501 -35.5606
2 1 7 -4.1337 18.9396
2 1 10 -10.6297 -5.0377
2 2 -6 5.2070 19.1457
2 2 -3 8.7098 -20.2918
2 2 0 52.1598 13.0776
2 2 3 2.7239 -0.1568
2 2 6 0.3056 -5.8051
2 2 9 0.6142 6.8033
2 3 -10 3.5814 6.9122
2 3 -7 6.4303 -8.9497
2 3 -4 6.8546 8.8841
2 3 -1 -6.0480 -3.9987
2 3 2 -55.3387 -3.2806
2 3 5 -2.7383 7.3930
2 3 8 4.3013 -7.9643
2 4 -8 -2.5275 -0.7477
2 4 -5 -4.8877 -1.3702
2 4 -2 21.1058 4.7212
2 4 1 12.7588 -7.3564
2 4 4 -0.0858 5.9357
2 4 7 0.3030 -2.2130
2 4 10 1.0418 -0.3872
2 5 -9 2.0010 -6.1031
2 5 -6 -2.1659 7.4507
2 5 -3 -16.6387 -5.0331
2 5 0 -11.5569 2.3580
2 5 3 11.5127 1.9521
2 5 6 2.2389 -5.7806
2 5 9 -0.9911 3.0305
2 6 -10 -1.0633 -6.8635
2 6 -7 -1.0060 0.2125
2 6 -4 -1.3649 6.8777
2 6 -1 -15.0942 -14.0753
2 6 2 10.2431 17.6624
2 6 5 6.8295 -14.6824
2 6 8 -9.5788 6.5135
2 7 -8 4.3459 -8.1878
2 7 -5 -4.0903 10.0913
2 7 -2 2.7719 -8.7006
2 7 1 25.5124 6.3047
2 7 4 6.2352 -2.7326
2 7 7 1.1224 -0.9387
2 7 10 -7.8285 0.4311
2 8 -9 3.9081 0.1163
2 8 -6 3.6108 -3.1294
2 8 -3 -3.8980 6.1662
2 8 0 10.5473 -6.6175
2 8 3 -12.9890 5.5972
2 8 6 1.4942 -1.4058
2 8 9 -5.8627 -1.8854
2 9 -10 -4.1282 4.1500
2 9 -7 -0.7194 -5.8972
2 9 -4 -0.4635 6.5787
2 9 -1 1.4709 -2.9793
2 9 2 5.0209 -2.5441
2 9 5 3.7050 5.6218
2 9 8 -8.9412 -5.0141
2 10 -8 2.6290 0.5291
2 10 -5 7.0759 -2.2592
2 10 -2 -2.2079 5.4210
2 10 1 2.2605 -6.3077
2 10 4 4.8952 6.4526
2 10 7 0.8399 -5.4752
2 10 10 -1.5136 3.6653
2 11 -9 5.3385 -0.2148
2 11 -6 5.4688 -0.9290
2 11 -3 -3.8317 1.5095
2 11 0 -4.2465 -0.8696
2 11 3 -5.7335 -0.9334
2 11 6 -2.1613 -0.1504
2 11 9 0.8275 -1.0312
2 12 -10 7.0125 0.6354
2 12 -7 -3.2886 -1.0683
2 12 -4 -2.8970 0.9751
2 12 -1 -1.6704 0.3349
2 12 2 6.9213 -2.0911
2 12 5 -6.7377 2.8455
2 12 8 0.7129 -3.7162
2 13 -8 -3.5826 -2.2923
2 13 -5 -0.1307 0.1353
2 13 -2 -6.2453 4.6285
2 13 1 11.4179 -9.2992
2 13 4 7.2904 10.0631
2 13 7 -2.1789 -6.5668
2 13 10 0.4184 3.8814
2 14 -9 -3.7879 3.0144
2 14 -6 1.7937 -5.4133
2 14 -3 -3.8130 7.1755
2 14 0 1.7120 -5.5698
2 14 3 -4.8050 2.7470
2 14 6 3.9657 0.8564
2 14 9 -4.8340 -0.5344
2 15 -10 12.1149 -1.6251
2 15 -7 -0.5211 5.4794
2 15 -4 2.0208 -9.6678
2 15 -1 -6.7242 12.0032
2 15 2 -0.3319 -11.1060
2 15 5 7.4603 5.8462
2 15 8 2.4438 -2.5702
2 16 -8 -5.9370 6.2848
2 16 -5 2.2086 -7.5503
2 16 -2 -5.3963 5.1285
2 16 1 -6.4132 -0.5349
2 16 4 -3.5017 -4.0283
2 16 7 -0.3036 5.3438
2 16 10 4.8258 -7.3840
2 17 -9 5.0341 -1.7730
2 17 -6 0.3253 1.1664
2 17 -3 -12.5857 -1.0990
2 17 0 4.2046 1.1083
2 17 3 2.5771 -0.7553
2 17 6 -3.2321 0.9642
2 17 9 4.1223 -1.8197
2 18 -7 10.4397 -0.0268
2 18 -4 0.6831 1.1314
2 18 -1 -3.0493 -1.7276
2 18 2 1.7999 1.8162
2 18 5 3.3671 -0.2664
2 18 8 -3.0348 -0.3970
2 19 -8 -5.7575 3.5630
2 19 -5 3.5167 -3.4751
2 19 -2 -0.3761 1.2195
2 19 1 -0.2309 0.9001
2 19 4 0.8731 -3.4084
2 19 7 1.7218 2.6129
2 20 -9 -5.2844 5.9215
2 20 -6 -4.2920 -0.2554
2 20 -3 0.7210 -4.3438
2 20 0 2.2967 9.1948
2 20 3 -0.3007 -11.3876
2 20 6 -2.5003 8.6035
2 20 9 0.1205 -3.8074
2 21 -7 2.2107 5.8529
2 21 -4 2.9211 -7.6828
2 21 -1 2.2806 7.1862
2 21 2 -0.8741 -4.2397
2 21 5 -3.2610 1.7204
2 21 8 6.0492 -0.6670
2 22 -8 5.4661 -1.9373
2 22 -5 0.5027 4.7800
2 22 -2 4.3378 -7.2471
2 22 1 -1.5803 7.3294
2 22 4 -0.9586 -4.9760
2 22 7 -16.7186 2.2700
2 23 -9 1.2295 -6.9132
2 23 -6 0.2937 5.5858
2 23 -3 3.7769 -7.0299
2 23 0 -1.6591 2.7167
2 23 3 2.1016 1.3692
2 23 6 0.7279 -5.0636
2 23 9 -10.2640 7.9889
2 24 -7 -4.8506 1.0063
2 24 -4 -7.2131 -0.0378
2 24 -1 1.5397 -1.5397
2 24 2 -1.3179 2.9433
2 24 5 -0.7716 -5.0867
2 24 8 -2.0603 5.3681
2 25 -8 -0.1923 -1.1684
2 25 -5 5.6362 -2.3352
2 25 -2 -2.5507 2.7405
2 25 1 3.8395 -1.9910
2 25 4 -7.3453 0.7832
2 25 7 -15.7504 -0.0819
2 26 -6 -9.3725 -0.0556
2 26 -3 -0.7299 0.2480
2 26 0 1.8266 -0.2919
2 26 3 -2.6135 0.0715
2 26 6 -8.0195 0.0389
2 27 -7 -0.1730 1.2955
2 27 -4 -1.8926 1.6813
2 27 -1 0.9281 -4.5107
2 27 2 5.2339 6.5873
2 27 5 0.0178 -6.0637
2 28 -8 3.1471 -4.7340
2 28 -5 -7.8166 5.6503
2 28 -2 1.3268 -7.4671
2 28 1 -3.5553 6.3538
2 28 4 -8.2160 -3.5774
2 28 7 -0.9915 1.6535
2 29 -6 -2.7994 -0.8475
2 29 -3 1.3326 3.6170
2 29 0 4.9268 -4.7034
2 29 3 -2.4572 3.7606
2 29 6 2.5172 -1.8388
2 30 -7 7.2586 -6.9725
2 30 -4 23.3755 3.4390
2 30 -1 -17.2523 -3.0572
2 30 2 -1.8798 -0.5187
2 30 5 -4.3892 2.9309
2 31 -5 7.3448 0.0798
2 31 -2 2.3890 1.3134
2 31 1 -2.6104 -2.5835
2 31 4 -17.8503 1.4007
2 31 7 -7.1347 -1.8357
2 32 -6 -1.5109 -1.6222
2 32 -3 -9.0257 -0.1207
2 32 0 12.2655 0.1640
2 32 3 8.4532 -0.5651
2 32 6 -5.6803 -1.8393
2 33 -4 2.7033 2.2445
2 33 -1 0.2917 -0.3754
2 33 2 12.9024 -0.3214
2 33 5 13.1230 1.6164
2 34 -2 4.9994 2.4781
2 34 1 -11.7322 -5.2470
2 34 4 4.3175 5.5447
2 35 -3 2.3593 2.9517
2 35 0 -5.3717 -5.3504
2 35 3 8.6173 4.6612
2 36 -1 -7.4131 2.3409
2 36 2 12.1481 -2.2940
2 37 -2 -1.4435 3.9366
2 37 1 7.8855 -1.5475
2 37 4 2.6335 -0.6952
2 38 -3 9.1218 -0.8214
2 38 0 2.6221 1.5314
2 38 3 -1.8762 -1.5001
2 39 -1 12.7669 -3.5108
2 39 2 0.6135 1.8975
3 1 -10 2.2937 -8.5740
3 1 -7 -1.1006 9.7504
3 1 -4 -3.0321 -3.3069
3 1 -1 54.8054 -10.5349
3 1 2 55.1066 22.9410
3 1 5 -1.3361 -25.0636
3 1 8 -5.8413 19.3652
3 2 -8 -0.1329 11.5288
3 2 -5 -2.9571 -12.0207
3 2 -2 -25.1492 6.2909
3 2 4 6.5420 -10.0541
3 2 7 0.8557 12.7767
3 2 10 5.0332 -10.9686
3 3 -9 12.3227 5.8939
3 3 -6 1.2460 -5.4041
3 3 -3 -13.0175 -1.0882
3 3 0 4.8531 9.1052
3 3 3 -1.5398 -12.9822
3 3 6 -0.5481 13.3661
3 3 9 5.6459 -9.1075
3 4 -10 1.4620 -2.3250
3 4 -7 -0.3802 3.6708
3 4 -4 11.9034 -3.9966
3 4 -1 -9.1534 2.9732
3 4 2 -40.3423 -0.3292
3 4 5 -3.8904 -1.6970
3 4 8 0.0318 2.3547
3 5 -8 0.5670 -5.8191
3 5 -5 -1.2905 8.0815
3 5 -2 -9.9171 -7.2617
3 5 1 -26.8685 3.3872
3 5 4 -4.0892 2.7485
3 5 7 4.4069 -4.6637
3 5 10 2.8083 3.0762
3 6 -9 -4.3385 -1.7620
3 6 -6 2.4135 0.2516
3 6 -3 3.0705 1.8183
3 6 0 -13.4030 -4.3069
3 6 3 15.3933 6.1238
3 6 6 -0.9808 -5.8534
3 6 9 -5.3991 3.6992
3 7 -10 -11.8256 0.3861
3 7 -7 10.2842 -0.0630
3 7 -4 6.7723 -0.1844
3 7 -1 14.3230 0.4958
3 7 2 -4.7081 -0.4681
3 7 5 -0.0085 -0.1920
3 7 8 -2.5339 0.5208
3 8 -8 0.9033 4.8299
3 8 -5 -4.0943 -8.1224
3 8 -2 2.6014 10.1718
3 8 1 5.0608 -8.7439
3 8 4 -4.7274 4.8331
3 8 7 3.1276 -0.7123
3 8 10 -2.7005 0.2046
3 9 -9 9.0108 4.4257
3 9 -6 0.1241 -4.2115
3 9 -3 -9.3501 1.9497
3 9 0 10.6794 1.4095
3 9 3 7.7920 -4.2983
3 9 6 2.0543 4.4778
3 9 9 1.7049 -3.7573
3 10 -10 -1.6433 -2.4390
3 10 -7 -2.4720 2.7154
3 10 -4 -0.0514 -3.1538
3 10 -1 3.2081 1.9070
3 10 2 -9.8638 1.4998
3 10 5 -1.5930 -4.1626
3 10 8 6.8624 4.0577
3 11 -8 -1.2508 -1.3553
3 11 -5 1.9081 4.5714
3 11 -2 2.6828 -6.9644
3 11 1 -6.8311 7.6765
3 11 4 4.6103 -7.1519
3 11 7 -3.8412 3.9958
3 11 10 5.0456 -1.1101
3 12 -9 1.6349 0.4763
3 12 -6 -2.1062 -1.2581
3 12 -3 -8.5812 2.5901
3 12 0 -7.2776 -3.1379
3 12 3 1.1269 3.6363
3 12 6 6.0425 -2.2700
3 12 9 10.6504 0.9651
3 13 -10 2.1269 3.5324
3 13 -7 -0.9034 -2.0000
3 13 -4 -4.2639 2.6890
3 13 -1 -5.4729 -1.6196
3 13 2 -9.3868 -0.7664
3 13 5 1.1072 2.8298
3 13 8 2.7244 -2.1504
3 14 -8 -4.3710 0.2060
3 14 -5 1.8959 0.4927
3 14 -2 2.3257 -0.2163
3 14 1 6.7396 0.7269
3 14 4 1.5211 -1.2248
3 14 7 -1.3959 0.7489
3 14 10 -1.9528 -1.0652
3 15 -9 -1.2828 -0.9605
3 15 -6 4.5213 3.2288
3 15 -3 2.3313 -6.4768
3 15 0 0.9980 7.1547
3 15 3 -1.2965 -6.8969
3 15 6 -0.2052 2.2216
3 15 9 4.1374 -0.2152
3 16 -7 2.9769 -0.9391
3 16 -4 3.3595 0.1385
3 16 -1 0.8426 -0.3585
3 16 2 -5.5636 0.9909
3 16 5 1.9110 -1.0407
3 16 8 -0.7700 1.4745
3 17 -8 6.7831 -1.1371
3 17 -5 4.1186 0.4266
3 17 -2 7.4975 1.2987
3 17 1 -6.4118 -3.6867
3 17 4 -0.4587 5.7158
3 17 7 3.1848 -4.8871
3 18 -9 6.4623 0.5341
3 18 -6 2.6277 -0.9945
3 18 -3 1.6562 2.6983
3 18 0 1.5962 -4.1931
3 18 3 1.1382 4.7687
3 18 6 -0.7305 -3.1123
3 18 9 1.3374 3.3872
3 19 -7 2.1918 0.9336
3 19 -4 -0.1017 -2.1396
3 19 -1 0.3565 1.8251
3 19 2 1.5130 -0.5328
3 19 5 1.3675 -2.0934
3 19 8 -5.3732 2.8167
3 20 -8 -2.8797 1.1256
3 20 -5 3.8895 -2.6534
3 20 -2 6.7737 1.4253
3 20 1 0.4361 0.3569
3 20 4 6.6812 -1.6044
3 20 7 0.1892 1.3456
3 21 -9 2.4649 -2.7627
3 21 -6 0.8641 0.0695
3 21 -3 -1.2456 0.7095
3 21 0 0.1476 -1.6466
3 21 3 1.4904 1.3915
3 21 6 5.0891 -0.1336
3 21 9 0.6690 -1.2504
3 22 -7 9.7927 -4.1548
3 22 -4 -5.4775 6.1192
3 22 -1 -3.4696 -7.9256
3 22 2 -5.1378 5.3973
3 22 5 4.4005 -2.1048
3 22 8 -0.6803 -1.8301
3 23 -8 9.8559 -2.1663
3 23 -5 -1.3857 1.6030
3 23 -2 5.3010 -1.5334
3 23 1 -0.6676 -0.4945
3 23 4 -1.6020 1.0636
3 23 7 -14.2437 -1.4024
3 24 -6 -6.3593 -2.3114
3 24 -3 1.6980 2.0644
3 24 0 3.4116 0.8940
3 24 3 -2.2181 -2.9505
3 24 6 2.0539 3.9040
3 25 -7 -9.6900 1.0371
3 25 -4 0.3174 -3.4870
3 25 -1 3.0484 6.1193
3 25 2 7.0860 -6.6634
3 25 5 3.1678 6.1700
3 25 8 10.6679 -3.3843
3 26 -8 6.1141 -1.1162
3 26 -5 -2.0890 -0.4853
3 26 -2 0.9016 0.1505
3 26 1 0.1946 -0.5391
3 26 4 -0.7851 0.4576
3 26 7 -0.3867 -0.2801
3 27 -6 3.4282 0.2675
3 27 -3 -9.9008 -1.4886
3 27 0 -10.4541 -0.7218
3 27 3 -3.1281 2.6167
3 27 6 -1.1902 -3.3623
3 28 -7 8.6619 -1.9951
3 28 -4 12.8801 1.7133
3 28 -1 2.4945 -1.8775
3 28 2 2.3666 1.8050
3 28 5 -3.4522 -0.5335
3 29 -5 1.4104 -1.4088
3 29 -2 -1.5660 3.0182
3 29 1 -1.6717 -3.4048
3 29 4 4.5770 3.2316
3 29 7 11.6280 -2.9642
3 30 -6 0.9469 -2.1770
3 30 -3 0.5827 0.8141
3 30 0 16.4585 -0.3526
3 30 3 5.8916 -0.7282
3 30 6 6.1609 1.3971
3 31 -4 3.1567 -1.6711
3 31 -1 5.3857 1.0022
3 31 2 -8.4608 0.3657
3 31 5 -2.4704 -2.0798
3 32 -5 3.4381 1.5032
3 32 -2 1.5899 -2.0002
3 32 1 -3.2029 3.9311
3 32 4 2.5608 -3.5014
3 33 -6 -0.1249 -0.5251
3 33 -3 -4.1784 -0.4231
3 33 0 -0.9437 0.6467
3 33 3 18.6878 -1.3522
3 34 -4 -3.0569 2.6024
3 34 -1 -0.0252 -0.3758
3 34 2 4.0193 -0.3399
3 34 5 6.1711 1.6998
3 35 -2 3.7732 -0.7578
3 35 1 -6.9134 1.0949
3 35 4 10.9479 -0.4682
3 36 -3 8.9700 -3.6409
3 36 0 -6.9548 4.8316
3 36 3 -6.3986 -3.2363
3 37 -1 4.4992 0.9559
3 37 2 -10.6666 1.9586
3 38 -2 -0.6344 -1.0534
3 38 1 2.4520 -1.8547
3 39 0 1.2080 -6.3736
4 1 -9 7.1023 3.4068
4 1 -6 -4.8747 1.8870
4 1 -3 -9.5754 -8.5967
4 1 0 -36.3849 16.0054
4 1 3 -6.8666 -19.8470
4 1 6 -0.1236 14.0420
4 1 9 3.1708 -6.2068
4 2 -10 13.8734 -6.9402
4 2 -7 -1.4535 17.0138
4 2 -4 -5.7324 -28.0616
4 2 -1 -81.4792 32.8428
4 2 2 27.0945 -25.9386
4 2 5 0.9918 13.1193
4 2 8 0.6850 -1.9396
4 3 -8 7.2062 5.4015
4 3 -5 0.2632 -6.9757
4 3 -2 23.2166 4.6247
4 3 4 8.4138 -4.0586
4 3 7 -0.7689 3.4215
4 3 10 3.4865 -2.3559
4 4 -9 -5.6056 1.5681
4 4 -6 5.9745 -2.1975
4 4 -3 18.3964 1.8194
4 4 0 -48.8795 -2.5974
4 4 3 -14.0014 2.2047
4 4 6 2.2075 0.1402
4 4 9 1.9558 -0.6234
4 5 -10 -1.0938 -0.1018
4 5 -7 -2.1367 -2.5785
4 5 -4 -6.9753 3.4938
4 5 -1 -6.3473 -4.1763
4 5 2 -1.3813 2.8553
4 5 5 2.3536 0.4230
4 5 8 -3.5935 -1.4894
4 6 -8 1.6542 -2.5106
4 6 -5 -6.9938 5.6688
4 6 -2 -16.2134 -7.6517
4 6 1 -8.5932 7.0832
4 6 4 10.2644 -4.4840
4 6 7 1.1201 2.1644
4 6 10 -8.4367 -1.3597
4 7 -9 -1.6180 -6.1138
4 7 -6 -1.9383 9.4917
4 7 -3 3.5635 -10.6376
4 7 0 -2.5788 7.0657
4 7 3 -3.8523 -0.5593
4 7 6 4.0750 -3.2160
4 7 9 9.8443 4.4006
4 8 -10 -7.2097 1.9271
4 8 -7 -3.5056 -4.8239
4 8 -4 -3.9804 5.0081
4 8 -1 5.5877 -3.1327
4 8 2 18.5331 -0.2763
4 8 5 1.7726 4.0380
4 8 8 -2.4311 -5.1035
4 9 -8 11.7205 0.8459
4 9 -5 -0.9672 -6.7357
4 9 -2 -3.8312 10.3286
4 9 1 1.3330 -12.4235
4 9 4 -4.5486 10.1736
4 9 7 -0.7481 -5.7346
4 9 10 -4.4334 2.7730
4 10 -9 1.9177 0.7700
4 10 -6 -3.3322 -1.5597
4 10 -3 7.2558 0.4338
4 10 0 -16.0813 1.2333
4 10 3 -1.7078 -1.6959
4 10 6 4.8598 1.6118
4 10 9 -1.7244 -1.4599
4 11 -10 -0.7961 -0.7118
4 11 -7 -0.1698 2.6422
4 11 -4 5.0760 -1.6881
4 11 -1 -0.8850 -2.2202
4 11 2 3.1123 5.4075
4 11 5 5.1405 -6.3098
4 11 8 2.8474 4.6935
4 12 -8 -6.5379 -1.9675
4 12 -5 -5.4415 3.6071
4 12 -2 0.9482 -4.0600
4 12 1 -3.2551 3.3617
4 12 4 -5.4357 -0.6554
4 12 7 -2.0062 0.5264
4 12 10 3.9111 1.2862
4 13 -9 -4.4681 -0.0456
4 13 -6 1.4494 -1.3455
4 13 -3 -0.5111 5.1322
4 13 0 -1.6605 -8.5888
4 13 3 2.3911 8.5652
4 13 6 -1.1953 -5.6902
4 13 9 -3.9992 3.7163
4 14 -10 2.8354 0.5721
4 14 -7 2.8982 -6.3035
4 14 -4 8.1443 7.7664
4 14 -1 5.2767 -5.6789
4 14 2 0.3080 2.0715
4 14 5 -5.8473 0.9562
4 14 8 -1.5606 -2.1321
4 15 -8 -2.4262 2.4861
4 15 -5 4.9055 -5.8411
4 15 -2 4.0048 7.4484
4 15 1 -6.6754 -7.8962
4 15 4 -14.1581 4.7620
4 15 7 -2.6238 -2.2065
4 15 10 8.6208 2.2641
4 16 -9 -5.6049 3.2367
4 16 -6 -4.9676 -3.4602
4 16 -3 0.8774 1.6413
4 16 0 2.3993 2.2129
4 16 3 2.4674 -4.9726
4 16 6 0.3187 6.4386
4 16 9 -0.7783 -4.4694
4 17 -7 1.5422 0.0909
4 17 -4 2.8863 -1.2117
4 17 -1 0.1534 2.4988
4 17 2 -2.5478 -2.0011
4 17 5 -4.8813 1.9743
4 17 8 -8.3369 0.8576
4 18 -8 2.5557 -2.4231
4 18 -5 -5.0332 3.0368
4 18 -2 3.2456 -4.0562
4 18 1 -0.3403 3.3893
4 18 4 -2.1407 -2.2362
4 18 7 -0.5784 1.3652
4 19 -9 3.0364 2.3920
4 19 -6 6.5563 -1.9972
4 19 -3 -4.4539 2.4709
4 19 0 5.7990 -2.7272
4 19 3 1.9571 2.1307
4 19 6 2.4496 -1.6334
4 19 9 9.0524 -1.0961
4 20 -7 -5.5535 0.7231
4 20 -4 4.8663 -2.9606
4 20 -1 -8.5800 6.0368
4 20 2 -5.0659 -8.1630
4 20 5 -2.6416 6.8561
4 20 8 -7.6312 -3.7230
4 21 -8 1.2877 3.2895
4 21 -5 -11.5754 -5.0343
4 21 -2 -1.9745 5.7145
4 21 1 0.5168 -3.8940
4 21 4 -2.9869 0.8130
4 21 7 -4.2610 1.7822
4 22 -9 5.7864 -1.6997
4 22 -6 -5.0108 3.1517
4 22 -3 5.6566 -3.8694
4 22 0 0.6833 2.8268
4 22 3 -3.5772 -1.2382
4 22 6 -2.6849 -1.1004
4 22 9 8.9061 0.2745
4 23 -7 2.7023 1.3860
4 23 -4 -2.3740 0.3008
4 23 -1 5.4174 -2.3942
4 23 2 -1.4008 4.0011
4 23 5 -3.0936 -2.7969
4 23 8 0.5354 1.2240
4 24 -8 1.8504 2.0074
4 24 -5 -8.4860 0.0441
4 24 -2 1.2099 0.7482
4 24 1 2.7590 0.4595
4 24 4 2.9437 0.0377
4 24 7 -14.4131 -1.1819
4 25 -6 -6.2511 -2.0116
4 25 -3 -1.4768 0.7734
4 25 0 3.1525 0.3584
4 25 3 -2.4847 -3.1569
4 25 6 -1.6411 3.0768
4 26 -7 3.6047 1.0261
4 26 -4 -1.1463 -2.9000
4 26 -1 0.9092 2.9050
4 26 2 0.8324 -3.2320
4 26 5 -0.1034 1.0459
4 26 8 -7.5238 3.0007
4 27 -5 -1.7146 2.6791
4 27 -2 6.0695 -4.2126
4 27 1 -6.2933 5.1695
4 27 4 -3.2631 -3.7822
4 27 7 -5.2432 1.6480
4 28 -6 3.4336 4.7698
4 28 -3 -4.6589 -4.1384
4 28 0 8.8624 1.8765
4 28 3 4.5553 2.1115
4 28 6 -0.5382 -2.8501
4 29 -7 3.2162 0.4854
4 29 -4 -2.1134 2.6999
4 29 -1 -8.4106 -4.4437
4 29 2 -3.1251 3.9310
4 29 5 5.9356 -2.8099
4 30 -5 -14.5075 -0.2138
4 30 -2 3.9229 0.5963
4 30 1 -4.0387 -2.2504
4 30 4 -13.8699 3.0681
4 30 7 -3.0993 0.3983
4 31 -6 -0.7310 3.7183
4 31 -3 -8.6742 1.5905
4 31 0 8.4869 -0.4305
4 31 3 3.9019 -0.1005
4 31 6 -2.4354 -1.3729
4 32 -4 4.8778 -1.5788
4 32 -1 8.8335 1.9525
4 32 2 -4.5298 -0.7992
4 32 5 4.9616 -0.5532
4 33 -5 1.8172 -0.4238
4 33 -2 -1.1295 -2.4152
4 33 1 -10.3449 2.3380
4 33 4 -12.5993 -1.1948
4 34 -3 5.8198 2.8243
4 34 0 0.3719 -2.5835
4 34 3 9.1497 3.3724
4 35 -1 -10.5873 -2.7727
4 35 2 -2.5601 1.1387
4 36 -2 3.8544 0.9630
4 36 1 -8.7951 -0.5409
4 37 -3 -1.8832 4.0485
4 37 0 2.5940 0.2897
4 38 -1 1.1191 -0.5053
5 1 -8 -3.2845 9.8901
5 1 -5 -1.8511 -13.7958
5 1 -2 -12.0649 12.1308
5 1 1 -20.1906 -5.1988
5 1 4 3.2081 -4.7003
5 1 7 -2.2202 7.7739
5 1 10 0.7817 -5.5874
5 2 -9 1.9323 5.7450
5 2 -6 0.2844 -6.1763
5 2 -3 11.8046 3.8107
5 2 0 22.8619 1.9677
5 2 3 17.9739 -6.1956
5 2 6 -2.0389 6.9049
5 2 9 -0.5203 -4.1677
5 3 -10 1.2165 8.9762
5 3 -7 1.9774 -9.2056
5 3 -4 -6.2462 6.9930
5 3 -1 -6.9499 0.9156
5 3 2 6.2175 -7.7553
5 3 5 3.4697 10.1394
5 3 8 0.6316 -7.3123
5 4 -8 -0.0367 3.5052
5 4 -5 -2.5785 -7.4090
5 4 -2 -0.1002 9.0478
5 4 1 31.7830 -7.2399
5 4 4 -11.1925 2.7410
5 4 7 -0.8056 -0.0729
5 4 10 11.8935 1.2768
5 5 -9 0.3939 -5.8155
5 5 -6 -3.0575 7.9064
5 5 -3 -13.1132 -5.8734
5 5 0 52.6942 2.1550
5 5 3 2.1096 2.5028
5 5 6 5.5155 -6.1154
5 5 9 -0.6755 6.2325
5 6 -10 -3.5566 0.1234
5 6 -7 -2.1884 -2.4412
5 6 -4 -0.8505 11.5817
5 6 -1 -2.3968 -19.0057
5 6 2 -5.5779 21.5820
5 6 5 8.3663 -17.2512
5 6 8 -3.4728 9.2302
5 7 -8 2.4442 -1.5797
5 7 -5 5.6980 3.5478
5 7 -2 1.5250 -4.3834
5 7 1 -17.4188 3.2555
5 7 4 -0.8675 -1.6893
5 7 7 -5.1448 -0.4817
5 7 10 2.0878 -0.3119
5 8 -9 2.4345 3.2784
5 8 -6 10.6653 -4.7889
5 8 -3 -2.4355 6.5190
5 8 0 13.1367 -4.9856
5 8 3 -6.6830 0.7542
5 8 6 -4.0535 2.8321
5 8 9 4.3928 -2.8588
5 9 -10 1.3404 -1.3580
5 9 -7 0.3965 -1.2654
5 9 -4 -6.1618 0.1773
5 9 -1 0.8421 1.3256
5 9 2 -4.3498 -2.8619
5 9 5 -7.0248 2.7425
5 9 8 -2.5156 -1.8213
5 10 -8 1.6454 -4.3150
5 10 -5 4.4636 7.2136
5 10 -2 8.0238 -7.6985
5 10 1 12.8420 6.8730
5 10 4 3.9503 -3.4578
5 10 7 -3.3565 -0.5310
5 10 10 0.7366 1.8017
5 11 -9 -5.3464 -2.3149
5 11 -6 3.4959 3.7335
5 11 -3 1.4250 -3.3286
5 11 0 -9.4525 0.2795
5 11 3 8.0755 3.5047
5 11 6 0.7903 -5.0740
5 11 9 3.6377 4.1054
5 12 -10 8.0385 2.2631
5 12 -7 -2.3301 -5.0617
5 12 -4 -0.5345 6.4509
5 12 -1 -3.1296 -5.6424
5 12 2 1.8818 2.8647
5 12 5 6.6356 0.2896
5 12 8 2.1571 -1.4203
5 13 -8 -5.9322 -1.2532
5 13 -5 9.2274 -0.8686
5 13 -2 -0.6770 2.9981
5 13 1 -4.4769 -4.7405
5 13 4 5.3562 3.7021
5 13 7 5.7346 -2.1024
5 13 10 15.1489 -0.6146
5 14 -9 -13.4838 -0.4943
5 14 -6 -1.6538 -2.0207
5 14 -3 -7.4432 3.2402
5 14 0 -0.8452 -2.4066
5 14 3 -2.3398 0.9629
5 14 6 -5.8105 -0.1338
5 14 9 -0.9153 -0.7168
5 15 -7 2.8269 1.8856
5 15 -4 -1.2592 -2.7311
5 15 -1 -2.2670 2.5358
5 15 2 6.6497 -1.9734
5 15 5 -1.0018 1.5579
5 15 8 -7.4809 -1.0001
5 16 -8 -2.3778 -0.2623
5 16 -5 9.4099 1.0517
5 16 -2 6.6877 -0.1048
5 16 1 -1.3722 0.5886
5 16 4 -0.8744 -0.4104
5 16 7 2.3545 1.5906
5 17 -9 -6.1649 -0.7946
5 17 -6 1.1216 -1.1741
5 17 -3 0.2485 2.6863
5 17 0 -1.7637 -2.6607
5 17 3 0.2973 1.5161
5 17 6 3.4614 0.5628
5 17 9 3.3879 -1.6810
5 18 -7 -1.4887 -0.4934
5 18 -4 -7.2008 -1.0672
5 18 -1 -7.1601 2.4199
5 18 2 0.4271 -4.3892
5 18 5 1.0958 4.3929
5 18 8 4.3649 -4.1091
5 19 -8 -0.0457 3.8260
5 19 -5 10.5790 -5.4727
5 19 -2 11.9665 5.3730
5 19 1 1.0559 -3.6911
5 19 4 -0.2397 -0.0773
5 19 7 -3.4782 1.7755
5 20 -9 13.2118 1.6570
5 20 -6 -2.1733 -0.8775
5 20 -3 6.9579 -2.3293
5 20 0 -2.4722 5.9536
5 20 3 -5.0226 -7.9736
5 20 6 0.7173 6.0518
5 20 9 1.5166 -2.8797
5 21 -7 2.9263 1.7850
5 21 -4 1.1493 -1.8138
5 21 -1 0.5672 2.9555
5 21 2 -4.9791 -1.3879
5 21 5 0.8839 0.3329
5 21 8 -0.0735 1.3552
5 22 -8 6.5011 0.0461
5 22 -5 2.6506 2.3489
5 22 -2 -1.8220 -2.1443
5 22 1 1.0536 1.9915
5 22 4 -6.2377 0.3045
5 22 7 -6.0425 -1.0421
5 23 -6 2.5314 2.6299
5 23 -3 -5.3166 -1.6357
5 23 0 8.1373 1.5587
5 23 3 -2.9622 0.4011
5 23 6 1.1436 -0.7624
5 24 -7 -9.7479 3.6193
5 24 -4 -3.7850 -4.3437
5 24 -1 8.8501 4.8389
5 24 2 -7.4650 -3.1390
5 24 5 3.7143 -0.2025
5 24 8 -2.2981 1.2073
5 25 -8 4.8288 -2.5826
5 25 -5 1.3826 -2.2904
5 25 -2 -0.0782 -0.5867
5 25 1 -5.0531 2.0349
5 25 4 1.4774 -5.0792
5 25 7 -2.4721 3.1489
5 26 -6 -1.1399 2.9068
5 26 -3 -6.2673 -2.9738
5 26 0 2.5222 2.3170
5 26 3 2.5364 -1.5093
5 26 6 8.7508 0.3748
5 27 -7 0.2785 1.6523
5 27 -4 4.7187 2.4655
5 27 -1 3.4306 -3.6919
5 27 2 5.2765 5.1475
5 27 5 -3.3522 -3.7394
5 28 -5 -11.2052 4.3702
5 28 -2 -4.7195 -3.5167
5 28 1 -7.9847 2.7260
5 28 4 -1.0778 -0.1864
5 28 7 -7.5469 1.7450
5 29 -6 -3.6216 1.0290
5 29 -3 -1.2452 0.2561
5 29 0 10.0175 -0.2870
5 29 3 -3.3032 1.0115
5 29 6 4.7445 -0.7362
5 30 -4 -2.1827 -0.2997
5 30 -1 -3.3808 0.4266
5 30 2 -1.3047 0.2239
5 30 5 -2.5972 1.3710
5 31 -5 -7.6570 2.4292
5 31 -2 5.4078 -1.5692
5 31 1 2.0178 1.2130
5 31 4 -2.7026 1.0344
5 32 -3 3.1927 0.7253
5 32 0 2.0054 -2.5089
5 32 3 -17.5819 3.5833
5 33 -4 -2.9558 1.8462
5 33 -1 2.6527 -3.5187
5 33 2 0.9460 2.8394
5 33 5 0.5360 -0.9149
5 34 -2 -2.8257 0.9544
5 34 1 7.2875 -3.4568
5 34 4 5.5344 0.5521
5 35 -3 4.8691 0.8050
5 35 0 -3.5337 -3.0862
5 35 3 10.3404 1.9179
5 36 -1 0.1950 -0.2943
5 36 2 -0.4569 -0.7635
5 37 -2 -3.2218 4.3348
5 37 1 3.6967 -1.5544
6 1 -10 1.4087 -8.7640
6 1 -7 1.9210 12.4322
6 1 -4 -8.1434 -11.5068
6 1 -1 22.3747 5.6421
6 1 2 -6.5169 2.8492
6 1 5 3.1966 -8.8428
6 1 8 -1.3554 9.0909
6 2 -8 1.1596 -0.8239
6 2 -5 -4.3738 -3.6046
6 2 -2 -6.1937 9.4617
6 2 1 4.6179 -13.1980
6 2 4 -1.1061 12.3193
6 2 7 0.3884 -6.7629
6 2 10 10.5058 3.5398
6 3 -9 -0.0588 5.5867
6 3 -6 -1.6030 -11.5606
6 3 -3 -8.5753 15.3404
6 3 0 -45.1732 -15.5373
6 3 3 -0.1183 8.6947
6 3 6 -1.0904 -1.0255
6 3 9 -4.6902 -3.7661
6 4 -10 -0.9738 1.9010
6 4 -7 11.5027 2.7612
6 4 -4 16.3599 -6.8696
6 4 -1 -2.5572 8.0810
6 4 2 -13.4802 -8.4929
6 4 5 7.5146 6.0346
6 4 8 -2.5817 -2.2211
6 5 -8 4.2503 -2.2018
6 5 -5 3.3800 7.2338
6 5 -2 2.7878 -11.1980
6 5 1 -2.5834 11.8840
6 5 4 -1.8794 -9.6162
6 5 7 -4.0360 4.8278
6 5 10 5.1630 -2.0258
6 6 -9 0.4541 -5.3137
6 6 -6 -3.7959 8.1463
6 6 -3 -2.6781 -7.5537
6 6 0 19.2947 4.2680
6 6 3 -11.4906 1.1919
6 6 6 0.2319 -4.9874
6 6 9 -2.6381 6.4196
6 7 -7 7.4269 5.5846
6 7 -4 1.4064 -6.0578
6 7 -1 -6.7725 4.7986
6 7 2 -0.3477 -1.7396
6 7 5 4.2633 -1.4755
6 7 8 -1.1330 3.1192
6 8 -8 -2.8798 1.2427
6 8 -5 3.1870 0.3473
6 8 -2 -2.5590 -1.8043
6 8 1 -25.2140 3.6779
6 8 4 -0.4596 -3.7981
6 8 7 1.3730 4.1268
6 8 10 -1.2108 -2.2331
6 9 -9 2.3230 -2.5138
6 9 -6 -2.9101 3.2211
6 9 -3 1.7890 -1.6878
6 9 0 -1.9166 -0.4424
6 9 3 -1.9006 3.0067
6 9 6 -4.8014 -3.2098
6 9 9 -0.5967 3.4891
6 10 -10 -2.8951 -1.7683
6 10 -7 -1.0379 0.9020
6 10 -4 -2.0964 2.2093
6 10 -1 4.4841 -6.0994
6 10 2 -8.9625 8.4573
6 10 5 1.5240 -6.5374
6 10 8 4.7610 3.2232
6 11 -8 -0.7206 -0.6871
6 11 -5 6.2622 1.2298
6 11 -2 0.6516 -2.6570
6 11 1 -1.7126 3.0059
6 11 4 -3.8811 -2.3038
6 11 7 1.7604 0.6506
6 11 10 3.6861 -0.9014
6 12 -9 -13.0296 -2.4300
6 12 -6 -0.7569 2.4066
6 12 -3 2.2052 -2.6840
6 12 0 -0.9427 2.6679
6 12 3 6.2868 -1.6351
6 12 6 4.9918 0.3219
6 12 9 -5.4981 -1.8211
6 13 -10 -2.6481 -4.3042
6 13 -7 -4.8425 1.6254
6 13 -4 -0.7739 -0.8723
6 13 -1 12.7831 1.4980
6 13 2 -4.7942 -1.9042
6 13 5 -5.8780 1.2818
6 13 8 2.9674 -1.0174
6 14 -8 0.5702 -0.5577
6 14 -5 -3.0726 1.4497
6 14 -2 -4.7667 0.0881
6 14 1 -5.3119 -0.5093
6 14 4 -2.9521 1.6641
6 14 7 3.2066 -2.4192
6 14 10 -2.3989 0.6151
6 15 -9 -4.4289 3.0090
6 15 -6 -2.0605 -0.0028
6 15 -3 4.0970 -0.1926
6 15 0 6.0040 -1.1479
6 15 3 14.2133 2.2950
6 15 6 6.7594 -2.9299
6 15 9 -0.9851 1.8255
6 16 -7 2.6932 -0.2208
6 16 -4 -0.0915 3.5897
6 16 -1 5.1830 -5.2485
6 16 2 1.5558 6.3040
6 16 5 -5.8336 -5.2003
6 16 8 1.1851 1.7867
6 17 -8 -3.6873 -1.7339
6 17 -5 0.0581 2.0051
6 17 -2 2.8124 -1.3158
6 17 1 -7.8168 -1.3930
6 17 4 2.6619 3.2880
6 17 7 -4.3339 -4.2058
6 18 -9 11.2064 -1.8464
6 18 -6 4.0347 -2.7226
6 18 -3 3.4187 4.2133
6 18 0 3.1828 -5.0621
6 18 3 4.3310 3.4263
6 18 6 1.7964 -2.1178
6 18 9 -2.9897 0.8560
6 19 -7 2.2647 -1.5144
6 19 -4 2.4010 0.9818
6 19 -1 0.8113 1.4366
6 19 2 3.4026 -3.4935
6 19 5 -5.6750 3.0458
6 19 8 2.0073 -1.2023
6 20 -8 1.3032 2.0366
6 20 -5 4.9690 -2.3818
6 20 -2 8.3172 3.6695
6 20 1 -0.1163 -2.6061
6 20 4 0.7891 0.7078
6 20 7 -2.0363 1.4551
6 21 -9 11.8072 0.0513
6 21 -6 0.3916 -1.8069
6 21 -3 -3.6298 3.1191
6 21 0 4.5725 -1.9032
6 21 3 0.3382 1.2934
6 21 6 3.1083 0.8527
6 21 9 5.3864 0.6521
6 22 -7 6.2800 -0.9158
6 22 -4 -3.4173 0.4871
6 22 -1 -12.5697 -0.9845
6 22 2 0.6593 0.2410
6 22 5 1.0877 1.4626
6 22 8 -1.1528 -0.9762
6 23 -8 -8.0129 0.4989
6 23 -5 7.1253 -1.0604
6 23 -2 -4.5703 0.5642
6 23 1 2.8029 -0.8406
6 23 4 7.2526 0.0526
6 23 7 2.6632 0.7375
6 24 -6 -4.1764 -1.1230
6 24 -3 6.6673 -0.7022
6 24 0 4.4241 1.9272
6 24 3 4.3338 -3.3441
6 24 6 0.1210 2.4673
6 25 -7 6.1378 -0.1923
6 25 -4 -10.8409 -3.9345
6 25 -1 -4.8583 4.4719
6 25 2 -1.3965 -4.7943
6 25 5 -0.5086 2.1806
6 25 8 8.7898 -3.9427
6 26 -5 -2.1396 -3.2326
6 26 -2 4.9497 3.3804
6 26 1 -3.1334 -2.4138
6 26 4 6.0148 0.6753
6 26 7 -3.5203 1.2213
6 27 -6 4.0331 -1.2111
6 27 -3 3.5089 0.6357
6 27 0 3.9121 0.1941
6 27 3 10.3658 -0.0110
6 27 6 0.6145 -1.2766
6 28 -7 -2.6506 -1.2168
6 28 -4 -6.4927 -0.4328
6 28 -1 2.1776 0.0546
6 28 2 -1.3129 0.2139
6 28 5 0.3640 -1.4762
6 29 -5 -4.5396 -1.2691
6 29 -2 0.2160 0.2040
6 29 1 2.8200 1.1969
6 29 4 -17.4373 -4.1809
6 30 -6 5.3146 -0.1590
6 30 -3 -2.4032 -3.3703
6 30 0 -2.3091 4.4051
6 30 3 -2.7669 -4.5709
6 30 6 -6.0479 4.3655
6 31 -4 -11.7267 -0.1476
6 31 -1 0.2706 -0.1559
6 31 2 4.7687 1.6035
6 31 5 17.7345 -1.0145
6 32 -5 -6.8274 -1.6884
6 32 -2 -2.2383 -3.9443
6 32 1 -6.0463 3.7804
6 32 4 -7.8368 -1.8344
6 33 -3 -4.8942 -1.7541
6 33 0 2.0959 -0.0748
6 33 3 -0.3139 0.1289
6 34 -4 3.7675 2.0934
6 34 -1 -4.6314 -1.8590
6 34 2 -4.8611 0.4679
6 35 -2 -4.1210 0.0341
6 35 1 9.5526 -1.3868
6 36 0 10.8124 -1.2950
6 37 -1 3.2515 2.4891
7 1 -9 0.3710 -8.0845
7 1 -6 2.7687 14.0682
7 1 -3 21.1624 -15.0968
7 1 0 -11.2844 9.9424
7 1 3 -0.4640 -1.7982
7 1 6 -2.9654 -5.3998
7 1 9 -0.2280 7.1825
7 2 -10 -5.3663 2.9962
7 2 -7 -5.4276 -8.1752
7 2 -4 10.3859 9.7998
7 2 -1 -45.7549 -6.8493
7 2 2 -6.7106 0.5500
7 2 5 -2.6482 4.2554
7 2 8 -1.4799 -6.8513
7 3 -8 3.6410 -3.5822
7 3 -5 2.4557 3.4896
7 3 -2 4.5566 -2.5233
7 3 1 -14.1979 -1.3695
7 3 4 1.2324 2.9746
7 3 7 -6.4298 -3.2749
7 3 10 0.8133 1.1497
7 4 -9 2.0107 2.1974
7 4 -6 2.2463 -2.3298
7 4 -3 9.2621 0.4144
7 4 0 -11.2622 1.2164
7 4 3 3.8817 -2.3900
7 4 6 -3.3756 1.8891
7 4 9 -3.7881 -1.6527
7 5 -7 2.8713 3.0413
7 5 -4 -0.8800 -4.7457
7 5 -1 -35.9096 4.9924
7 5 2 7.3159 -4.3010
7 5 5 1.1642 2.8665
7 5 8 6.2582 -2.1652
7 6 -8 -2.1980 1.3322
7 6 -5 -3.4875 -1.8619
7 6 -2 -10.9812 0.8523
7 6 1 28.7176 0.4227
7 6 4 3.6916 -2.0175
7 6 7 -2.2182 2.4528
7 6 10 4.3542 -0.6257
7 7 -9 -6.1004 1.4828
7 7 -6 -6.2923 0.2204
7 7 -3 -6.8514 -4.6353
7 7 0 7.3758 8.5997
7 7 3 1.4720 -11.1425
7 7 6 4.1606 8.7542
7 7 9 -2.2614 -5.6529
7 8 -10 -3.9072 2.2656
7 8 -7 -1.1637 2.0417
7 8 -4 5.3794 -4.2877
7 8 -1 -18.7237 6.3357
7 8 2 -0.5096 -5.3442
7 8 5 -1.9373 2.2559
7 8 8 -0.6323 0.8721
7 9 -8 -0.5994 0.2742
7 9 -5 4.6720 0.0010
7 9 -2 6.9176 -0.8399
7 9 1 -5.0691 0.5773
7 9 4 1.7818 0.3632
7 9 7 -1.8651 -0.8874
7 9 10 3.9997 -0.5875
7 10 -9 -11.8612 -2.1534
7 10 -6 -11.3365 1.6471
7 10 -3 -2.2670 -1.6908
7 10 0 11.5457 -0.0979
7 10 3 -4.8549 1.2418
7 10 6 -5.2719 -1.3638
7 10 9 1.7290 0.6152
7 11 -10 3.0046 1.2108
7 11 -7 3.9610 0.8730
7 11 -4 4.3759 -2.7070
7 11 -1 2.2438 2.9816
7 11 2 -2.7873 -3.4710
7 11 5 -1.3416 2.6209
7 11 8 -2.2369 -0.6857
7 12 -8 0.3690 3.3288
7 12 -5 2.3280 -4.1320
7 12 -2 8.3767 2.6416
7 12 1 -0.4635 0.7074
7 12 4 -7.3389 -3.0043
7 12 7 4.8968 4.3389
7 12 10 0.2856 -0.6912
7 13 -9 -4.3692 2.1863
7 13 -6 -1.5575 -2.0264
7 13 -3 3.9182 -0.4806
7 13 0 9.0510 3.4016
7 13 3 -0.0982 -5.4809
7 13 6 -2.2727 5.5630
7 13 9 6.1433 -3.3007
7 14 -7 -5.7574 0.3100
7 14 -4 -3.2537 -0.8076
7 14 -1 -0.8818 -0.0986
7 14 2 3.8473 0.8070
7 14 5 2.3626 -1.4891
7 14 8 0.7842 0.7957
7 15 -8 0.7858 -2.4948
7 15 -5 2.1302 4.1305
7 15 -2 0.4965 -5.6844
7 15 1 -6.4374 4.8047
7 15 4 2.9567 -2.9763
7 15 7 -3.1992 0.1830
7 16 -9 -3.9859 -2.5660
7 16 -6 2.9596 4.3458
7 16 -3 3.6197 -3.3935
7 16 0 -2.6360 0.9253
7 16 3 -2.2615 2.5634
7 16 6 1.6456 -4.1673
7 16 9 3.5982 4.2764
7 17 -7 -7.5363 -0.5583
7 17 -4 3.6829 0.4084
7 17 -1 6.9461 -1.8897
7 17 2 2.3284 1.1779
7 17 5 -1.7361 -0.7108
7 17 8 0.0083 -0.1568
7 18 -8 1.6921 -1.5380
7 18 -5 6.9797 -0.2168
7 18 -2 -0.3163 0.3743
7 18 1 0.7961 -0.3369
7 18 4 -0.8100 0.6265
7 18 7 -2.8626 -0.6334
7 19 -9 3.7685 3.7201
7 19 -6 -9.7514 0.0659
7 19 -3 -3.2963 0.4475
7 19 0 1.7343 -0.9417
7 19 3 9.5573 2.1700
7 19 6 3.6880 -3.5343
7 19 9 1.4816 1.5507
7 20 -7 -2.0482 -0.6730
7 20 -4 4.6021 2.3409
7 20 -1 0.7919 -3.1219
7 20 2 -1.1229 3.7400
7 20 5 -1.5234 -2.5869
7 20 8 -0.7844 1.4244
7 21 -8 2.6517 -1.4092
7 21 -5 8.4096 2.4343
7 21 -2 -0.4410 -1.1555
7 21 1 -6.9023 -1.2178
7 21 4 -5.7889 2.7573
7 21 7 3.6719 -3.2228
7 22 -6 1.6359 -1.9230
7 22 -3 2.6314 2.4799
7 22 0 -0.8135 -4.2206
7 22 3 3.2119 3.6349
7 22 6 0.6798 -0.4383
7 23 -7 4.1235 -1.3791
7 23 -4 0.6321 2.0080
7 23 -1 -4.0051 -2.8801
7 23 2 0.9001 2.7908
7 23 5 5.5535 -2.0646
7 23 8 -1.5390 -0.3433
7 24 -8 1.4733 -1.0818
7 24 -5 -10.4451 -0.0871
7 24 -2 11.2491 -0.7408
7 24 1 0.9032 1.2000
7 24 4 5.4168 -0.1599
7 24 7 -0.6426 0.9681
7 25 -6 0.2883 -1.9026
7 25 -3 -4.2031 1.5976
7 25 0 6.9869 -1.7680
7 25 3 5.3502 1.4296
7 25 6 -4.1874 -0.6426
7 26 -7 2.5180 -0.0070
7 26 -4 3.3523 3.8029
7 26 -1 0.5854 -1.2254
7 26 2 -8.9813 -1.1555
7 26 5 -16.2633 3.3103
7 27 -5 -7.5445 0.0050
7 27 -2 0.2977 2.1949
7 27 1 -9.1050 -3.2930
7 27 4 4.5749 3.1385
7 27 7 6.9281 -3.4170
7 28 -6 3.7850 -1.4802
7 28 -3 -1.9887 -0.6786
7 28 0 1.4294 0.6068
7 28 3 -15.5576 -1.8032
7 28 6 12.5966 1.8132
7 29 -4 -11.0818 -4.2471
7 29 -1 -8.0011 3.8368
7 29 2 6.5312 -3.4578
7 29 5 -0.2282 1.7235
7 30 -5 -10.2550 -3.1220
7 30 -2 0.6696 2.1658
7 30 1 9.3475 -0.7631
7 30 4 -0.9275 -0.0697
7 31 -3 5.4859 0.1964
7 31 0 -4.9281 -0.3683
7 31 3 -1.4659 0.8459
7 32 -4 -3.9943 -1.2546
7 32 -1 -0.9744 0.0641
7 32 2 0.8082 -0.0934
7 33 -2 1.8988 0.4407
7 33 1 -1.4515 0.2096
7 33 4 5.4864 1.7223
7 34 -3 -1.0887 0.0882
7 34 0 9.4795 2.5270
7 34 3 -9.3516 -2.6310
7 35 -1 9.5005 2.6512
7 35 2 11.2655 -3.3270
8 1 -8 -1.7499 6.5258
8 1 -5 4.1488 -8.5293
8 1 -2 14.9054 8.5888
8 1 1 -20.0064 -5.3477
8 1 4 2.9664 2.9208
8 1 7 5.1125 -0.5126
8 1 10 -2.2005 -5.4997
8 2 -9 -0.7834 2.1520
8 2 -6 -0.0841 -4.4207
8 2 -3 -3.9574 3.5244
8 2 0 -10.6497 -2.2627
8 2 3 -0.0812 0.8623
8 2 6 3.3097 1.3065
8 2 9 -1.7642 -1.9002
8 3 -7 7.4502 1.8113
8 3 -4 -7.2383 0.2148
8 3 -1 16.7519 -3.4488
8 3 2 6.6272 6.5405
8 3 5 6.5484 -6.7310
8 3 8 1.2600 4.2759
8 4 -8 -4.9661 0.5788
8 4 -5 -0.1193 -2.2114
8 4 -2 -13.8376 1.8332
8 4 1 -2.7778 -0.9254
8 4 4 1.8739 1.3560
8 4 7 5.2214 -0.6327
8 4 10 -3.9894 1.9235
8 5 -9 2.0554 4.4199
8 5 -6 0.4521 -5.9597
8 5 -3 -15.5393 6.0323
8 5 0 9.2313 -2.9567
8 5 3 -4.3719 -1.9558
8 5 6 4.3206 4.4932
8 5 9 1.6847 -5.0879
8 6 -10 -2.8618 1.4532
8 6 -7 -4.6216 1.7959
8 6 -4 -6.6105 -4.0457
8 6 -1 4.7372 5.0539
8 6 2 13.6623 -4.2656
8 6 5 0.6573 1.8447
8 6 8 -4.4453 0.2183
8 7 -8 0.7991 3.2325
8 7 -5 1.7569 -4.1603
8 7 -2 -1.1369 4.3646
8 7 1 4.0800 -2.7646
8 7 4 -7.2362 0.2695
8 7 7 -0.4788 0.7285
8 7 10 -0.1436 -0.1254
8 8 -9 -6.3214 4.1676
8 8 -6 3.2439 -6.4321
8 8 -3 5.8777 6.8968
8 8 0 12.0914 -5.8367
8 8 3 -3.1340 2.5504
8 8 6 -0.6677 0.7179
8 8 9 -1.4034 -2.7657
8 9 -10 15.9116 -0.5436
8 9 -7 6.8912 -2.4913
8 9 -4 -6.7069 -0.1979
8 9 -1 4.1370 3.2352
8 9 2 5.6246 -5.7561
8 9 5 1.9747 5.7781
8 9 8 -1.6452 -4.9115
8 10 -8 7.2263 2.8044
8 10 -5 -1.8918 -2.9714
8 10 -2 6.7041 1.6052
8 10 1 10.0110 -0.0347
8 10 4 8.1681 -1.7090
8 10 7 -0.6498 1.7575
8 10 10 -2.8654 0.7803
8 11 -9 -4.5722 1.5478
8 11 -6 -2.5920 1.3887
8 11 -3 -1.8584 -2.4392
8 11 0 16.3377 3.2736
8 11 3 -2.2774 -1.5077
8 11 6 -5.0501 0.2916
8 12 -10 2.2281 2.0163
8 12 -7 4.6604 2.5290
8 12 -4 -1.1727 -3.0166
8 12 -1 6.7099 3.3125
8 12 2 -2.3854 -1.3488
8 12 5 -0.5804 0.2960
8 12 8 -7.3117 1.3180
8 13 -8 1.6099 -1.3626
8 13 -5 4.1733 -1.1974
8 13 -2 2.0377 2.2542
8 13 1 0.8686 -3.4053
8 13 4 1.1603 2.9304
8 13 7 1.2193 -0.8503
8 14 -9 -13.3559 -2.3571
8 14 -6 -2.9756 -0.8017
8 14 -3 -1.2991 1.0884
8 14 0 -1.4781 -2.1964
8 14 3 -2.3520 1.7025
8 14 6 -5.9847 -0.6213
8 14 9 -2.4113 -0.3212
8 15 -7 2.4655 -2.2671
8 15 -4 -2.4984 2.1812
8 15 -1 -7.3734 -3.7373
8 15 2 -5.8300 3.8553
8 15 5 5.1456 -2.7761
8 15 8 -6.1055 1.0401
8 16 -8 -3.7501 0.4255
8 16 -5 -6.4226 1.6272
8 16 -2 -1.0698 -2.4463
8 16 1 6.2881 4.0401
8 16 4 16.5248 -3.4166
8 16 7 -2.9555 2.7287
8 17 -9 -9.5459 0.0670
8 17 -6 -0.6737 1.1429
8 17 -3 -2.1878 -2.4392
8 17 0 9.0863 2.3903
8 17 3 -0.5174 -1.9013
8 17 6 2.3264 2.2599
8 17 9 -3.2605 -2.8682
8 18 -7 -8.0741 -0.3383
8 18 -4 5.3254 1.8979
8 18 -1 -9.4532 -2.5559
8 18 2 0.8413 3.3455
8 18 5 2.2004 -2.2195
8 18 8 0.5768 0.6771
8 19 -8 2.4087 -1.0391
8 19 -5 -3.8093 1.9412
8 19 -2 1.6407 -1.5620
8 19 1 1.4737 0.7657
8 19 4 0.1052 0.5088
8 19 7 0.3888 -2.2751
8 20 -6 3.9823 -1.0213
8 20 -3 -0.7258 0.5426
8 20 0 -2.0379 -1.0549
8 20 3 0.9528 0.8306
8 20 6 5.7673 -0.7514
8 21 -7 6.1513 -3.1556
8 21 -4 -6.5454 1.5087
8 21 -1 2.4587 -1.2838
8 21 2 -4.3119 0.2293
8 21 5 -2.5297 -0.7381
8 21 8 0.0814 0.9017
8 22 -8 -11.3192 -1.4835
8 22 -5 -2.2470 2.3045
8 22 -2 2.4192 -2.5210
8 22 1 6.8992 1.3641
8 22 4 1.5899 -0.1935
8 22 7 -10.3390 0.3868
8 23 -6 -3.0024 2.1478
8 23 -3 0.7001 -0.1252
8 23 0 1.4332 0.2484
8 23 3 0.4667 1.4927
8 23 6 -6.9183 -2.0121
8 24 -7 2.9105 0.0002
8 24 -4 -4.1649 0.0885
8 24 -1 0.1340 0.0759
8 24 2 1.3844 0.2980
8 24 5 -3.5838 0.0579
8 24 8 6.6298 2.0216
8 25 -5 -2.3599 -1.7346
8 25 -2 0.1467 2.5958
8 25 1 -0.9375 -2.0746
8 25 4 -14.0988 1.5587
8 25 7 12.5366 -0.4448
8 26 -6 -3.7317 -0.1114
8 26 -3 -2.1329 2.6619
8 26 0 -4.1029 -1.6240
8 26 3 2.7780 0.3609
8 26 6 2.1304 0.0996
8 27 -7 6.1188 0.6166
8 27 -4 -12.6694 -0.5909
8 27 -1 -13.0666 0.2367
8 27 2 -1.1800 -0.1236
8 27 5 3.0749 -0.3579
8 28 -5 -10.5118 0.1368
8 28 -2 5.2675 -1.3693
8 28 1 -3.5774 1.1039
8 28 4 -6.1487 -1.4521
8 29 -6 -8.7000 0.2900
8 29 -3 5.5700 0.0379
8 29 0 -5.9432 0.2275
8 29 3 -5.9364 -1.2205
8 29 6 0.1249 -0.4267
8 30 -4 3.3911 0.5001
8 30 -1 3.4205 0.6544
8 30 2 3.5100 -1.7077
8 30 5 1.1374 0.5384
8 31 -5 -1.2903 1.3697
8 31 -2 2.1428 1.1708
8 31 1 6.9382 -2.2124
8 31 4 -0.1716 1.4026
8 32 -3 0.6042 -0.5195
8 32 0 10.9603 1.2724
8 32 3 -7.2899 0.2324
8 33 -4 2.3131 3.0194
8 33 -1 2.6082 1.2738
8 33 2 -12.6320 -0.6058
8 34 -2 -2.7303 0.8339
8 34 1 -5.5558 -0.0149
8 35 0 -0.4297 1.5253
9 1 -10 1.9455 6.4047
9 1 -7 7.6956 0.8677
9 1 -4 -8.4370 -15.8960
9 1 -1 -5.5117 30.7769
9 1 2 -3.4296 -37.1286
9 1 5 1.9427 30.0575
9 1 8 -1.7462 -16.1491
9 2 -8 0.0027 6.3239
9 2 -5 -5.8618 -10.0704
9 2 -2 -2.8524 11.6318
9 2 1 6.5210 -7.3031
9 2 4 5.5908 2.7016
9 2 7 1.9809 2.2785
9 2 10 10.5772 -2.5832
9 3 -9 -5.0416 -1.3027
9 3 -6 -3.9508 3.5668
9 3 -3 -10.8444 -3.3580
9 3 0 6.9417 1.6519
9 3 3 0.3395 2.3642
9 3 6 6.0180 -3.6805
9 3 9 -4.5983 4.1734
9 4 -7 -2.3290 0.0882
9 4 -4 -0.0738 -1.5769
9 4 -1 -7.0688 3.2898
9 4 2 2.6974 -2.7755
9 4 5 2.0983 2.0152
9 4 8 0.8146 -0.9554
9 5 -8 1.3488 -1.3944
9 5 -5 3.9590 1.1357
9 5 -2 6.1705 0.3555
9 5 1 -10.8532 -1.8792
9 5 4 2.1377 2.7583
9 5 7 -5.7289 -2.8037
9 5 10 12.4525 -0.5683
9 6 -9 2.8769 -0.4977
9 6 -6 -0.8296 -0.9024
9 6 -3 -4.1784 1.3285
9 6 0 -10.0115 -2.5606
9 6 3 3.3257 3.9310
9 6 6 -0.6770 -5.1966
9 6 9 -0.8946 4.4387
9 7 -10 7.9898 -1.1459
9 7 -7 -3.2504 -1.9173
9 7 -4 0.3936 3.0598
9 7 -1 -5.2496 -2.6695
9 7 2 0.1354 0.3878
9 7 5 6.1835 1.2116
9 7 8 -3.8197 -2.4551
9 8 -8 -5.4372 -2.5621
9 8 -5 0.7834 0.4777
9 8 -2 5.4476 3.4225
9 8 1 -17.1013 -6.8184
9 8 4 -7.6208 6.4984
9 8 7 -3.5301 -4.3761
9 8 10 0.4853 -0.2939
9 9 -9 -8.9208 1.3479
9 9 -6 4.8873 -1.7317
9 9 -3 3.7250 2.5815
9 9 0 -2.7298 -1.7201
9 9 3 -4.1429 -0.7380
9 9 9 -3.2434 -2.0878
9 10 -10 7.3737 3.4115
9 10 -7 6.1171 0.9666
9 10 -4 2.4320 -0.3719
9 10 -1 -0.1492 0.0501
9 10 2 1.5314 1.2507
9 10 5 0.7452 -1.6274
9 10 8 2.0701 1.1906
9 11 -8 -3.8478 0.5349
9 11 -5 0.9437 2.3864
9 11 -2 0.2513 -3.7055
9 11 1 -10.8134 3.9736
9 11 4 0.6031 -2.5077
9 11 7 -4.7333 0.6459
9 11 10 -11.2689 3.7453
9 12 -9 -5.6391 -0.3918
9 12 -6 -3.2458 0.2801
9 12 -3 4.0611 0.2566
9 12 0 0.5639 0.2353
9 12 3 -6.7439 -1.1580
9 12 6 6.2416 0.2001
9 12 9 -2.8036 -0.2252
9 13 -7 -2.4983 -1.2215
9 13 -4 -2.2810 0.1440
9 13 -1 8.1010 0.0889
9 13 2 -5.2143 -1.4077
9 13 5 1.3374 0.3920
9 13 8 -1.7047 -0.8429
9 14 -8 -1.5276 0.1887
9 14 -5 -1.0924 1.0119
9 14 -2 -3.5777 -0.4598
9 14 1 -1.6742 -1.2123
9 14 4 -5.0532 2.6806
9 14 7 -1.8506 -2.3630
9 15 -9 -8.9809 -1.4331
9 15 -6 -5.1584 1.2993
9 15 -3 -2.2631 0.5655
9 15 0 -4.3118 -1.4879
9 15 3 -0.7404 2.9915
9 15 6 -0.4326 -1.2826
9 15 9 2.8456 1.8207
9 16 -7 4.8977 1.9548
9 16 -4 0.0394 -1.9317
9 16 -1 3.2868 3.1445
9 16 2 2.0459 -1.9393
9 16 5 0.7873 2.2442
9 16 8 1.0382 0.8091
9 17 -8 1.4972 0.6449
9 17 -5 9.9355 -1.3308
9 17 -2 -1.3248 -0.0510
9 17 1 -1.8662 0.9245
9 17 4 -6.9945 -1.8945
9 17 7 7.6569 2.0955
9 18 -9 4.4418 2.5770
9 18 -6 -5.1787 1.0665
9 18 -3 -5.3207 -2.1030
9 18 0 0.9940 2.6443
9 18 3 -1.2946 -2.5224
9 18 6 4.4534 1.8094
9 18 9 -0.5780 -3.7705
9 19 -7 7.5943 1.7118
9 19 -4 -3.8884 -1.1416
9 19 -1 2.5825 0.7064
9 19 2 2.6459 -0.2645
9 19 5 1.0566 -0.7813
9 19 8 5.8471 -0.6527
9 20 -8 2.5489 -1.4814
9 20 -5 2.0825 -0.9722
9 20 -2 0.4257 -0.2947
9 20 1 -1.9377 0.2960
9 20 4 3.6171 -0.8557
9 20 7 0.7845 1.3749
9 21 -6 -1.1175 0.8058
9 21 -3 -16.1503 -0.7862
9 21 0 7.0538 0.3355
9 21 3 -1.2637 -0.2694
9 21 6 -2.1892 0.2116
9 22 -7 -4.9610 0.6650
9 22 -4 0.6805 -0.6519
9 22 -1 -2.2635 0.3218
9 22 2 0.9595 0.4499
9 22 5 -4.8260 1.3287
9 22 8 4.8381 -1.8495
9 23 -8 0.6481 4.1819
9 23 -5 5.0601 1.4223
9 23 -2 8.5680 0.7449
9 23 1 -0.3476 0.0246
9 23 4 2.5918 0.8202
9 23 7 7.8154 -0.7457
9 24 -6 5.3717 -0.7709
9 24 -3 -1.8315 0.1300
9 24 0 1.9932 0.7215
9 24 3 -1.0428 -1.1138
9 24 6 8.0906 2.0554
9 25 -7 6.4508 0.7718
9 25 -4 -1.1696 -0.4996
9 25 -1 -5.5146 1.0602
9 25 2 6.7182 -0.4514
9 25 5 -5.2589 1.0772
9 26 -5 -15.8547 0.0767
9 26 -2 1.7735 -0.0034
9 26 1 -0.1130 0.0575
9 26 4 13.5453 0.2897
9 27 -6 9.4987 -1.3157
9 27 -3 2.2638 -0.6167
9 27 0 0.1773 -0.0867
9 27 3 4.5821 1.0276
9 27 6 3.2298 -0.3415
9 28 -4 -6.6341 0.2346
9 28 -1 -0.9060 -1.0984
9 28 2 -5.4614 1.1812
9 28 5 -10.8375 -0.6240
9 29 -5 -0.1462 1.7079
9 29 -2 6.8495 0.5778
9 29 1 4.2566 0.1622
9 29 4 4.9551 0.0220
9 30 -3 12.0953 2.1204
9 30 0 6.6832 -1.7766
9 30 3 -9.6532 1.4690
9 31 -4 -2.4003 1.3811
9 31 -1 -1.1004 -0.6072
9 31 2 1.2942 -0.0319
9 32 -2 -10.7800 0.9450
9 32 1 -0.3589 0.8149
9 32 4 -6.2677 0.9621
9 33 -3 3.2013 -1.1165
9 33 0 7.7566 1.1872
9 33 3 11.0020 -0.3408
9 34 -1 0.4786 0.5907
9 34 2 -3.2477 2.4927
9 35 1 -1.1774 2.4019
10 1 -9 3.6408 8.2950
10 1 -6 -1.1730 -8.5992
10 1 -3 5.6894 3.6615
10 1 0 -5.7438 8.0454
10 1 3 -6.2985 -16.9639
10 1 6 0.7071 19.6662
10 1 9 -2.1794 -14.4716
10 2 -7 -1.4257 -6.9064
10 2 -4 6.9558 7.1527
10 2 -1 2.8864 -3.4045
10 2 2 2.3074 -2.1253
10 2 5 -1.5683 5.5142
10 2 8 -7.1346 -4.7150
10 3 -8 -8.7207 -1.9562
10 3 -5 0.5032 3.6503
10 3 -2 -8.7082 -1.6932
10 3 1 -5.6455 -0.7709
10 3 4 4.9468 2.4203
10 3 7 5.2886 -2.4088
10 3 10 -4.6031 4.3095
10 4 -9 -4.4050 0.2959
10 4 -6 -3.4515 -2.0603
10 4 -3 -3.6298 2.6389
10 4 0 -5.3867 -0.1689
10 4 3 4.4993 -2.5013
10 4 6 4.8410 4.8489
10 4 9 5.7582 -5.0791
10 5 -10 -4.4147 -0.4935
10 5 -7 1.2245 -0.0749
10 5 -4 2.9590 2.6604
10 5 -1 10.1170 -5.1774
10 5 2 3.5335 5.7370
10 5 5 -4.4130 -3.9729
10 5 8 -2.1409 1.9003
10 6 -8 -11.8432 -3.7730
10 6 -5 1.6163 4.4005
10 6 -2 -8.1356 -4.1251
10 6 1 -15.6917 2.7143
10 6 4 1.7598 -0.0276
10 6 7 2.5229 -1.2864
10 6 10 0.9619 0.2497
10 7 -9 -0.1738 -0.2451
10 7 -6 -2.4869 -1.1036
10 7 -3 -0.4165 1.7639
10 7 0 -4.1442 -1.3237
10 7 3 6.2143 0.8147
10 7 6 -7.6887 -0.4093
10 7 9 -4.1326 -0.4364
10 8 -10 4.7908 -3.2929
10 8 -7 0.6777 -0.4893
10 8 -4 1.5753 2.6878
10 8 -1 0.1880 -3.7727
10 8 2 -8.6408 3.5634
10 8 5 2.9118 -2.6108
10 8 8 -2.0299 1.2437
10 9 -8 -5.0919 -0.7647
10 9 -5 5.1428 1.3125
10 9 -2 4.6664 -0.1936
10 9 1 -9.5456 -1.5474
10 9 4 -0.8840 2.6423
10 9 7 -0.6916 -2.6007
10 9 10 -4.4793 1.1593
10 10 -9 -3.1243 0.3306
10 10 -6 1.9863 0.9672
10 10 -3 6.5055 0.4840
10 10 0 8.5644 -1.4005
10 10 3 1.0394 1.6834
10 10 6 0.2390 -0.3579
10 10 9 5.5965 -0.3276
10 11 -7 -1.8494 3.2677
10 11 -4 -5.6555 -3.2741
10 11 -1 -1.8622 3.1670
10 11 2 5.2355 -1.6387
10 11 5 3.9876 -0.7886
10 11 8 0.2555 1.5874
10 12 -8 6.0733 0.9579
10 12 -5 0.9108 -0.8036
10 12 -2 -3.7705 -1.7882
10 12 1 -1.7040 4.4390
10 12 4 2.8657 -6.5488
10 12 7 -2.8524 3.7342
10 13 -9 -6.1465 -0.6668
10 13 -6 7.6745 -0.1001
10 13 -3 -1.3873 -1.1131
10 13 0 8.1196 1.6761
10 13 3 2.9443 -1.7328
10 13 6 -1.2893 -0.3569
10 13 9 0.7319 2.5682
10 14 -7 -0.3293 0.1265
10 14 -4 -12.4041 2.1091
10 14 -1 1.3859 -1.7661
10 14 2 2.1312 2.1026
10 14 5 3.8016 -0.2937
10 14 8 0.3267 -0.6714
10 15 -8 -1.9524 1.1559
10 15 -5 -0.5548 0.6935
10 15 -2 3.7328 0.9650
10 15 1 2.0931 -1.2074
10 15 4 -5.6520 1.9892
10 15 7 -0.4717 -0.8255
10 16 -9 -2.6684 -1.1185
10 16 -6 8.4527 1.9626
10 16 -3 1.0788 -1.7205
10 16 0 1.9305 3.0111
10 16 3 1.0870 -3.9529
10 16 6 -9.7893 2.4262
10 16 9 -9.0237 0.5279
10 17 -7 -2.9416 1.5392
10 17 -4 3.0913 -3.6129
10 17 -1 -2.9093 3.0472
10 17 2 -1.0252 -2.0414
10 17 5 1.0118 -0.2468
10 17 8 5.9956 1.7418
10 18 -8 2.8727 0.1017
10 18 -5 -2.5852 -0.6473
10 18 -2 0.5672 0.3305
10 18 1 0.9174 0.6668
10 18 4 -0.0733 -1.1985
10 18 7 4.3114 0.1143
10 19 -6 -6.5344 0.0350
10 19 -3 -8.1356 -0.3631
10 19 0 -2.2886 0.3329
10 19 3 -2.9837 -0.5029
10 19 6 -1.8979 -0.5763
10 20 -7 -6.8039 0.9016
10 20 -4 2.6686 0.1804
10 20 -1 4.1727 -0.3997
10 20 2 -5.8286 -0.0510
10 20 5 6.9351 -0.4834
10 20 8 -6.8426 -1.6424
10 21 -8 -4.1438 2.1773
10 21 -5 -4.0268 0.1159
10 21 -2 0.6455 0.8255
10 21 1 -1.3414 -0.9150
10 21 4 2.5942 -0.3567
10 21 7 12.5436 -1.3047
10 22 -6 -4.6643 0.5642
10 22 -3 3.0181 -0.0615
10 22 0 -0.5780 0.0803
10 22 3 0.9605 -0.5651
10 22 6 4.4070 -1.1069
10 23 -7 4.0126 -0.4151
10 23 -4 -4.2176 1.4945
10 23 -1 1.5259 -1.3648
10 23 2 2.9460 0.4970
10 23 5 0.6860 -0.7420
10 24 -5 -3.5358 -0.7609
10 24 -2 11.6467 -0.3309
10 24 1 0.1696 -0.8545
10 24 4 -7.1334 1.3102
10 24 7 -1.3784 -3.1060
10 25 -6 -3.0276 -0.2803
10 25 -3 2.8688 0.1610
10 25 0 0.9096 -0.8788
10 25 3 -4.5477 0.2651
10 25 6 7.2526 -0.8255
10 26 -4 1.4000 0.2697
10 26 -1 0.7553 0.4721
10 26 2 -10.0708 -1.1903
10 26 5 -1.2327 0.8981
10 27 -5 -1.6903 -0.9997
10 27 -2 1.7507 -0.3181
10 27 1 -8.8532 -0.8895
10 27 4 3.1048 0.7339
10 28 -6 5.4364 -2.1357
10 28 -3 -13.3161 0.6773
10 28 0 -5.7480 -1.1970
10 28 3 -0.6464 1.0630
10 28 6 -6.6911 -0.5820
10 29 -4 -2.3889 0.2266
10 29 -1 -3.3900 0.1418
10 29 2 0.6430 -0.5522
10 29 5 6.9905 -1.2814
10 30 -5 6.4846 -1.3251
10 30 -2 8.7930 2.2059
10 30 1 -4.5342 -1.9512
10 30 4 -6.3026 1.1269
10 31 -3 12.9217 1.3254
10 31 0 8.8652 -1.1720
10 31 3 -15.8127 0.2854
10 32 -4 -1.6859 -1.6735
10 32 -1 -1.6422 -0.0447
10 32 2 -8.3955 1.7864
10 33 -2 -13.2243 -3.6753
10 33 1 13.5400 2.8945
10 34 0 7.6734 2.5038
11 1 -8 11.2022 -4.7160
11 1 -5 -4.1473 8.3769
11 1 -2 15.2795 -7.8743
11 1 1 -4.2177 4.8918
11 1 4 7.0966 0.5002
11 1 7 0.2889 -3.2450
11 1 10 3.8108 5.1441
11 2 -9 1.9883 0.5435
11 2 -6 7.6685 -6.4095
11 2 -3 -2.0271 17.3034
11 2 0 13.7174 -24.7712
11 2 3 -7.1674 24.4923
11 2 6 4.0144 -16.1015
11 2 9 -3.0382 7.6626
11 3 -10 1.1413 4.8307
11 3 -7 -12.5473 -5.3294
11 3 -4 -10.2430 6.0229
11 3 -1 8.6186 -5.9527
11 3 2 -2.5181 3.5027
11 3 5 8.7585 -1.6200
11 3 8 -2.6320 -0.5771
11 4 -8 -7.7289 1.8380
11 4 -5 1.7029 -3.0956
11 4 -2 -2.5774 3.2319
11 4 1 1.6247 -2.2656
11 4 4 3.6270 0.3016
11 4 7 0.2757 0.4492
11 4 10 3.3853 -2.6271
11 5 -9 -3.1093 -4.4329
11 5 -6 3.9764 7.8116
11 5 -3 -2.8176 -10.1779
11 5 0 2.7291 7.9044
11 5 3 -8.0981 -3.5178
11 5 6 4.1374 0.2611
11 5 9 -5.3914 2.0464
11 6 -10 0.8224 1.1604
11 6 -7 2.2767 0.4331
11 6 -4 1.4027 0.7622
11 6 -1 11.6109 -2.1472
11 6 2 -6.3786 3.2477
11 6 5 4.3838 -1.7467
11 6 8 2.4466 1.7588
11 7 -8 4.5544 0.6112
11 7 -5 1.9895 -1.1925
11 7 -2 8.2885 2.0377
11 7 1 -8.4961 -1.4458
11 7 4 10.8365 0.9327
11 7 7 -0.6484 0.7717
11 7 10 -0.9872 1.0848
11 8 -9 -2.4378 -2.1045
11 8 -6 -9.1849 0.8083
11 8 -3 1.0010 -0.5409
11 8 0 9.5121 -0.0377
11 8 3 2.2264 1.3260
11 8 9 -0.5817 1.0204
11 9 -10 11.8333 1.4881
11 9 -7 0.7352 -3.5710
11 9 -4 10.7435 3.4592
11 9 -1 -1.6992 -4.1420
11 9 2 -2.4230 3.0661
11 9 5 3.6577 -0.3220
11 9 8 1.0040 -1.6132
11 10 -8 3.7146 -1.9211
11 10 -5 0.0300 0.6441
11 10 -2 0.9119 -0.0386
11 10 1 -10.2016 -1.2109
11 10 4 -3.7170 1.7036
11 10 7 -6.0245 -1.0812
11 10 10 2.8814 -1.9066
11 11 -9 -1.2472 0.4593
11 11 -6 4.4665 0.0788
11 11 -3 3.2821 -1.6405
11 11 0 3.6717 2.2517
11 11 3 3.3900 -2.5233
11 11 6 1.4640 1.7119
11 11 9 11.0250 -2.9961
11 12 -7 -1.2778 2.0765
11 12 -4 0.6200 -3.1415
11 12 -1 -0.4141 3.5218
11 12 2 1.8312 -3.4410
11 12 5 1.2162 1.2173
11 12 8 2.3931 0.7183
11 13 -8 5.4998 1.3079
11 13 -5 -0.6230 -4.6626
11 13 -2 1.1824 5.4958
11 13 1 1.3971 -5.0488
11 13 4 0.5297 2.8771
11 13 7 -2.6206 0.3768
11 14 -9 -9.5414 4.1370
11 14 -6 -0.1712 -2.9313
11 14 -3 -0.5762 2.4034
11 14 0 -0.7122 -0.0955
11 14 3 1.9861 -1.1687
11 14 6 -3.6877 2.1760
11 14 9 1.6299 -3.6471
11 15 -7 2.7759 -0.6068
11 15 -4 5.3310 -0.5757
11 15 -1 1.3708 0.5436
11 15 2 -1.6779 -0.6066
11 15 5 2.8433 -0.0581
11 15 8 -0.4538 0.4253
11 16 -8 -4.7146 0.1960
11 16 -5 1.6811 -0.2135
11 16 -2 4.0861 -1.7525
11 16 1 2.1659 2.4983
11 16 4 0.1424 -3.0016
11 16 7 -5.7198 1.3409
11 17 -9 4.7237 -3.5731
11 17 -6 -3.6275 0.0131
11 17 -3 -0.6266 -0.2957
11 17 0 2.5938 -0.7089
11 17 3 -5.5760 0.8699
11 17 6 -4.1490 0.1080
11 17 9 -6.2380 2.7814
11 18 -7 5.8019 -0.2200
11 18 -4 1.9338 -0.4459
11 18 -1 -2.4071 1.6190
11 18 2 -6.7454 -2.1753
11 18 5 6.0137 3.0369
11 18 8 5.7128 -0.8344
11 19 -8 -1.6861 0.8429
11 19 -5 -7.4455 -1.1882
11 19 -2 -1.1115 1.2618
11 19 1 -5.0126 -0.6589
11 19 4 1.4050 1.0364
11 19 7 -0.4176 1.4209
11 20 -6 5.2069 -0.4461
11 20 -3 1.1870 -0.9132
11 20 0 0.5584 1.0552
11 20 3 -3.7652 -0.2722
11 20 6 0.0057 -0.5450
11 21 -7 0.2777 0.4524
11 21 -4 0.7099 0.1956
11 21 -1 -0.1683 -0.0374
11 21 2 7.9887 -0.0087
11 21 5 7.0668 -0.8282
11 21 8 1.9810 4.6934
11 22 -5 -16.4478 0.7145
11 22 -2 1.6402 -1.3254
11 22 1 0.8521 0.9910
11 22 4 -15.2518 -0.7971
11 22 7 6.9825 1.2550
11 23 -6 -0.1306 1.9632
11 23 -3 -10.6384 -1.1434
11 23 0 5.0605 -0.2028
11 23 3 -8.7103 1.0295
11 23 6 -2.1411 -1.1123
11 24 -7 4.2888 -3.0198
11 24 -4 6.1570 -0.0863
11 24 -1 -6.9800 -2.6434
11 24 2 -1.1598 3.0302
11 24 5 -9.2107 -2.7396
11 25 -5 0.4531 1.1306
11 25 -2 -6.3232 -2.1774
11 25 1 2.5726 1.7351
11 25 4 8.3786 -1.1073
11 25 7 -4.8961 0.7588
11 26 -6 -4.7041 0.1811
11 26 -3 -4.2299 0.4621
11 26 0 -3.9724 -1.0006
11 26 3 -10.4161 1.5005
11 26 6 -0.3578 1.7625
11 27 -4 -10.5445 1.7910
11 27 -1 4.0105 -1.6980
11 27 2 5.4171 1.8810
11 27 5 -1.4447 -0.4356
11 28 -5 1.9922 2.7430
11 28 -2 2.4540 -1.0960
11 28 1 10.7789 0.5919
11 28 4 26.2632 -0.1957
11 29 -3 1.9216 0.5110
11 29 0 4.9529 0.5808
11 29 3 12.0181 -0.4892
11 30 -4 -4.8504 -1.8488
11 30 -1 -5.2507 0.3326
11 30 2 -5.3631 -1.1018
11 31 -2 7.0481 -1.4395
11 31 1 23.5253 -1.6649
11 31 4 -6.7152 -0.7101
11 32 -3 8.4661 -0.2844
11 32 0 13.0800 -0.4363
11 32 3 -5.3293 -1.1470
11 33 -1 -2.1900 -0.1438
12 1 -10 -3.7488 1.6669
12 1 -7 3.5971 -8.1771
12 1 -4 -1.1727 15.2128
12 1 -1 -4.4138 -17.8522
12 1 2 -1.0052 14.1771
12 1 5 4.4624 -5.5143
12 1 8 -4.6882 -1.8746
12 2 -8 -4.4186 -10.0298
12 2 -5 -3.4339 8.9943
12 2 -2 -4.1960 -5.0906
12 2 1 4.1744 -4.3439
12 2 4 9.2967 10.8109
12 2 7 -2.3766 -12.7276
12 2 10 -3.1637 8.2290
12 3 -9 1.8048 -4.4172
12 3 -6 3.8466 4.9564
12 3 -3 1.0466 -4.3667
12 3 0 3.9059 0.1822
12 3 3 3.3452 3.5642
12 3 6 -8.3218 -6.1398
12 3 9 16.6752 4.5052
12 4 -10 6.8932 -1.8079
12 4 -7 -10.6317 -0.0207
12 4 -4 2.0746 0.7339
12 4 -1 5.3814 -2.6200
12 4 2 -5.2365 3.9228
12 4 5 3.5455 -3.1346
12 4 8 0.5387 2.5819
12 5 -8 -6.5961 6.2942
12 5 -5 -5.6858 -5.4021
12 5 -2 -10.3363 1.7109
12 5 1 0.0989 3.3394
12 5 4 4.7647 -6.5967
12 5 7 -2.8195 6.6884
12 5 10 3.4870 -1.6558
12 6 -9 -7.5406 2.2654
12 6 -6 7.0960 1.2761
12 6 -3 0.7425 -4.5991
12 6 0 -0.7417 7.1497
12 6 3 6.3461 -6.0346
12 6 6 1.9997 3.6047
12 6 9 -1.1148 1.0127
12 7 -10 -0.7938 2.5603
12 7 -7 2.9825 -0.3445
12 7 -4 0.2836 0.0373
12 7 -1 0.5359 0.7743
12 7 2 -11.4059 -0.7502
12 7 5 4.7361 -0.2061
12 7 8 5.0065 0.6438
12 8 -8 -2.8654 -0.9105
12 8 -5 5.8563 0.9175
12 8 -2 -2.2549 -1.9923
12 8 1 -5.3708 1.1777
12 8 4 0.3160 0.0309
12 8 7 -5.9563 -0.8925
12 8 10 7.2199 -1.8996
12 9 -9 -3.3617 -1.8520
12 9 -6 4.9951 -0.5609
12 9 -3 -0.0058 1.3875
12 9 0 -11.1210 -3.1767
12 9 3 -4.1243 3.2996
12 9 6 0.6101 -1.9844
12 9 9 -0.4858 0.8930
12 10 -7 -3.3388 -1.3751
12 10 -4 -7.9749 1.5099
12 10 -1 0.3276 -2.4170
12 10 2 4.3998 2.6135
12 10 5 -3.9956 -0.9480
12 10 8 -2.8948 1.0373
12 11 -8 -5.2546 -0.6055
12 11 -5 -8.5238 1.8634
12 11 -2 -3.1256 -0.2759
12 11 1 -3.0454 0.2643
12 11 4 -2.7447 1.1821
12 11 7 0.4229 -2.1675
12 12 -9 -9.0547 3.7533
12 12 -6 1.1753 -3.3915
12 12 -3 0.5704 3.2951
12 12 0 -3.6982 -3.1143
12 12 3 10.1468 1.7344
12 12 6 3.4952 -0.9808
12 12 9 2.6022 -1.9471
12 13 -7 0.7703 -2.9012
12 13 -4 5.5475 1.3244
12 13 -1 -4.8704 1.6837
12 13 2 -5.4919 -5.5112
12 13 5 -2.6954 6.7495
12 13 8 -3.5097 -4.9601
12 14 -8 6.0767 -0.1939
12 14 -5 6.5634 -2.3362
12 14 -2 -4.3706 3.9360
12 14 1 0.9985 -4.4891
12 14 4 -3.6600 2.1017
12 14 7 -0.6522 -0.8431
12 15 -6 1.3466 -0.8640
12 15 -3 -18.4503 0.1274
12 15 0 1.1133 -0.7621
12 15 3 2.0143 0.3525
12 15 6 -0.5826 -1.3579
12 15 9 -12.3741 2.9587
12 16 -7 -1.7099 -0.9251
12 16 -4 -1.5969 0.3865
12 16 -1 -4.9849 -1.9296
12 16 2 1.1217 1.9644
12 16 5 7.5653 -2.9518
12 16 8 -0.5623 0.7262
12 17 -8 -3.5571 -0.9901
12 17 -5 3.7396 0.5910
12 17 -2 6.3370 -0.6545
12 17 1 -3.5463 -0.4203
12 17 4 -2.1568 1.7129
12 17 7 0.0014 -1.1602
12 18 -6 -2.4626 -1.3878
12 18 -3 -3.8702 4.7554
12 18 0 -0.6716 -3.3705
12 18 3 -0.7991 2.3666
12 18 6 -5.1632 0.6553
12 19 -7 -1.5942 -0.1174
12 19 -4 -22.4960 -0.4636
12 19 -1 7.7159 1.8761
12 19 2 -5.1233 -2.7181
12 19 5 -8.8086 2.7120
12 19 8 0.1872 -0.8968
12 20 -8 1.9150 -0.2145
12 20 -5 -5.1645 -1.7674
12 20 -2 -4.8681 1.0559
12 20 1 -1.2908 -0.5306
12 20 4 -0.5668 -0.4365
12 20 7 -2.2710 1.7190
12 21 -6 2.9249 -0.5808
12 21 -3 8.6692 -1.6909
12 21 0 -0.9686 2.3941
12 21 3 -2.9770 -2.8424
12 21 6 -2.2633 2.4511
12 22 -7 3.0761 -0.7463
12 22 -4 0.0741 -1.4968
12 22 -1 -0.4301 1.0616
12 22 2 -0.9274 -0.1804
12 22 5 -11.4459 0.0326
12 23 -5 -5.1196 -0.2249
12 23 -2 -4.1441 -0.6544
12 23 1 6.3904 1.0975
12 23 4 -21.7063 -1.8269
12 23 7 0.3635 -2.5579
12 24 -6 -5.9374 0.7051
12 24 -3 -8.9609 -1.5925
12 24 0 3.3041 1.4367
12 24 3 0.5568 -0.3187
12 24 6 -1.8548 0.4474
12 25 -4 -3.7283 -0.7064
12 25 -1 5.5104 0.8160
12 25 2 -7.6575 0.1560
12 25 5 6.2203 -1.2423
12 26 -5 0.2606 1.5855
12 26 -2 8.4991 -1.5856
12 26 1 -1.5633 2.3238
12 26 4 1.4217 -1.3241
12 27 -6 1.0911 0.2506
12 27 -3 -0.2028 -1.4211
12 27 0 17.8707 1.7744
12 27 3 9.3590 -0.0071
12 28 -4 -4.4150 0.5071
12 28 -1 15.0661 0.4277
12 28 2 10.5938 1.1903
12 28 5 8.6555 0.4322
12 29 -5 -2.4291 0.9000
12 29 -2 -3.7402 0.2895
12 29 1 4.6959 0.6451
12 29 4 -11.6203 -0.3231
12 30 -3 5.6253 -0.7884
12 30 0 13.8191 0.2869
12 30 3 -16.6426 -0.6939
12 31 -4 -0.2347 1.9658
12 31 -1 -9.8617 -2.1105
12 31 2 0.1244 2.2500
12 32 -2 -1.1966 -1.5150
12 32 1 -15.4148 1.0632
12 33 0 5.6837 -3.6091
13 1 -9 -2.2740 8.2723
13 1 -6 -0.2106 -15.6841
13 1 -3 2.8618 16.2254
13 1 0 6.1628 -10.3251
13 1 3 -6.8112 0.9042
13 1 6 -0.4605 6.7782
13 1 9 0.1147 -8.6438
13 2 -10 -7.5723 -1.5677
13 2 -7 2.7394 -1.9101
13 2 -4 0.7927 3.8609
13 2 -1 -7.1866 -5.2730
13 2 2 11.2691 6.2834
13 2 5 -0.9102 -5.2025
13 2 8 -1.8913 2.8802
13 3 -8 5.3230 -5.1202
13 3 -5 17.0066 10.2089
13 3 -2 -1.8027 -14.7401
13 3 1 5.3962 13.8629
13 3 4 3.6742 -8.7030
13 3 7 5.6692 2.0605
13 3 10 5.8205 2.7448
13 4 -9 -1.4919 -1.7526
13 4 -6 -4.5471 3.2882
13 4 -3 4.3655 -1.5634
13 4 0 7.3502 0.3266
13 4 3 1.5582 1.4228
13 4 6 3.1370 -1.4811
13 4 9 10.9833 0.3008
13 5 -10 -3.9338 2.9222
13 5 -7 -1.2720 4.0157
13 5 -4 -6.0067 -7.7809
13 5 -1 1.5063 10.6371
13 5 2 -1.2995 -10.8190
13 5 5 0.4796 7.0803
13 5 8 -0.7490 -2.8269
13 6 -8 -4.5003 3.4020
13 6 -5 -2.3886 -4.5480
13 6 -2 -4.2104 3.9544
13 6 1 -18.1895 -0.1149
13 6 4 -14.7758 -2.9836
13 6 7 7.2742 4.1477
13 6 10 -4.2198 -0.8623
13 7 -9 -5.1429 0.5859
13 7 -6 3.8970 -0.5998
13 7 -3 -1.3988 1.1564
13 7 0 0.9643 -1.5514
13 7 3 -1.5839 0.1490
13 7 6 -1.4088 -0.7880
13 7 9 -0.1649 0.3909
13 8 -7 -0.5627 -2.5037
13 8 -4 3.9858 1.5645
13 8 -1 7.4864 -1.3728
13 8 2 3.0140 0.8040
13 8 5 6.8923 -0.9203
13 8 8 12.8181 0.8755
13 9 -8 -12.4260 -1.1128
13 9 -5 -4.4835 2.3101
13 9 -2 1.2217 -2.4370
13 9 1 -0.2012 2.9149
13 9 4 -2.8945 -1.4880
13 9 7 -5.0347 2.2309
13 10 -9 3.5450 -1.8932
13 10 -6 -3.8499 3.4972
13 10 -3 16.9367 -2.3723
13 10 0 1.6900 1.5687
13 10 3 2.6613 1.6020
13 10 6 -7.6365 -1.0191
13 10 9 -3.2958 2.1613
13 11 -7 -6.6551 0.1131
13 11 -4 -4.2021 2.9567
13 11 -1 -1.5991 -3.6301
13 11 2 4.9680 4.1986
13 11 5 -0.8593 -1.9528
13 11 8 3.8073 -0.0074
13 12 -8 -10.8220 0.1617
13 12 -5 -1.2176 -2.1368
13 12 -2 -7.6056 1.8194
13 12 1 6.2187 -2.5721
13 12 4 2.3456 1.7408
13 12 7 2.1399 -1.6543
13 13 -9 -7.9879 1.5167
13 13 -6 4.3236 -1.5381
13 13 -3 2.8993 2.0321
13 13 0 5.7458 -1.9652
13 13 3 -2.1756 0.7423
13 13 6 2.5536 0.4733
13 13 9 3.6409 -2.5248
13 14 -7 -3.1332 0.1193
13 14 -4 4.4215 1.3729
13 14 -1 -2.0972 -1.3587
13 14 2 2.2908 1.5260
13 14 5 -3.5974 -0.7960
13 14 8 -3.5200 -1.6578
13 15 -8 1.0503 -1.7505
13 15 -5 3.1965 3.3953
13 15 -2 0.0648 -2.7706
13 15 1 -5.8185 0.8992
13 15 4 1.9082 0.6213
13 15 7 3.3552 -1.0928
13 16 -6 0.9649 0.9276
13 16 -3 -2.4967 -1.0198
13 16 0 -1.0508 0.0578
13 16 3 3.5343 0.7818
13 16 6 -3.5076 -1.2542
13 17 -7 -15.3238 1.5781
13 17 -4 4.3925 -0.1033
13 17 -1 -0.2367 0.2201
13 17 2 -7.9886 0.4289
13 17 5 6.6517 -0.1945
13 17 8 -1.6808 -0.2798
13 18 -8 1.2875 2.2026
13 18 -5 -0.9717 -0.0711
13 18 -2 2.8696 1.6543
13 18 1 -5.7737 -1.1471
13 18 4 0.5972 1.0825
13 18 7 -0.9386 -2.1191
13 19 -6 9.6740 -0.6369
13 19 -3 -3.3772 0.9542
13 19 0 0.7085 -1.4801
13 19 3 3.4916 0.9828
13 19 6 -5.0122 -1.2470
13 20 -7 -0.6343 0.6235
13 20 -4 6.4782 -0.5351
13 20 -1 5.3327 0.5245
13 20 2 1.2114 0.1407
13 20 5 2.3873 0.9759
13 20 8 -5.7706 3.1698
13 21 -5 8.5565 0.8151
13 21 -2 4.1358 -0.0524
13 21 1 -3.6312 1.2341
13 21 4 4.0448 -1.7647
13 21 7 1.5285 1.7355
13 22 -6 6.1547 0.3688
13 22 -3 8.5881 -0.5576
13 22 0 -1.7185 1.0522
13 22 3 1.0235 -0.8408
13 22 6 -5.7249 1.9760
13 23 -7 6.3955 0.8786
13 23 -4 2.9032 -0.9079
13 23 -1 -12.1381 1.5096
13 23 2 4.1362 -2.1900
13 23 5 3.0143 1.0375
13 24 -5 5.0073 -1.3640
13 24 -2 0.2300 1.3682
13 24 1 2.7474 -0.4951
13 24 4 10.5911 -0.1671
13 25 -6 5.1361 2.3109
13 25 -3 -7.3438 0.3117
13 25 0 -7.6441 1.1203
13 25 3 -9.4979 -2.0166
13 25 6 -1.2472 -0.7651
13 26 -4 -4.5512 -0.0512
13 26 -1 -5.6570 0.7421
13 26 2 2.3470 -0.3225
13 26 5 13.3868 -0.3576
13 27 -5 13.2229 -1.1976
13 27 -2 0.7357 0.4752
13 27 1 9.6996 0.1722
13 27 4 14.0047 1.1374
13 28 -3 1.8975 -0.9146
13 28 0 3.5269 0.3320
13 28 3 -2.6997 -1.6461
13 29 -4 -13.5511 -1.9875
13 29 -1 -0.1489 0.3048
13 29 2 8.7517 -2.6731
13 30 -2 -9.6533 2.2228
13 30 1 3.7367 -0.2127
13 30 4 -8.2848 -2.0870
13 31 -3 0.7327 3.4175
13 31 0 -8.4207 -0.7487
13 31 3 -1.2023 2.8857
13 32 -1 0.5514 -3.7731
13 32 2 -6.7513 0.9856
14 1 -8 -2.6442 11.2882
14 1 -5 5.2235 -20.3114
14 1 -2 12.7179 24.3959
14 1 1 -0.3865 -18.8121
14 1 4 -0.6017 7.8407
14 1 7 -0.4337 2.5703
14 1 10 -5.0253 -6.5969
14 2 -9 -14.8057 -0.1194
14 2 -6 -6.8117 1.2470
14 2 -3 -3.4017 -1.0795
14 2 0 11.7645 0.4165
14 2 3 -1.3842 0.9173
14 2 6 3.5083 -1.5554
14 2 9 -1.1190 1.8570
14 3 -10 6.2974 -4.7140
14 3 -7 -8.5220 4.0676
14 3 -4 -4.6154 -2.5822
14 3 -1 -8.4877 0.5171
14 3 2 -8.7056 2.5303
14 3 5 -3.1775 -3.4302
14 3 8 8.3163 2.2253
14 4 -8 10.6938 1.3172
14 4 -5 1.7842 -0.4177
14 4 -2 1.5230 -0.7654
14 4 1 0.2895 2.2112
14 4 4 1.7173 -3.2440
14 4 7 2.6643 2.7592
14 4 10 1.7689 -3.8668
14 5 -9 6.6883 3.4153
14 5 -6 2.8996 -2.4488
14 5 -3 4.2569 1.6705
14 5 0 2.2994 0.0527
14 5 3 -4.4148 -2.0585
14 5 6 3.2471 2.5012
14 5 9 -4.6135 -2.9569
14 6 -10 6.2840 -2.0863
14 6 -7 -9.5754 0.0230
14 6 -4 -4.6951 0.5547
14 6 -1 -4.4038 0.6580
14 6 2 -5.8803 -2.5314
14 6 5 1.0777 1.7905
14 6 8 3.6918 -2.7931
14 7 -8 -3.9323 -0.8414
14 7 -5 -9.1468 -0.3369
14 7 -2 3.8377 2.4388
14 7 1 4.6638 -5.2033
14 7 4 1.2264 4.7782
14 7 7 -5.5219 -4.2852
14 8 -9 -4.5060 -1.6989
14 8 -6 -2.2301 -0.2265
14 8 -3 7.2077 0.3704
14 8 0 -9.4323 -0.1112
14 8 3 -2.6619 -0.6089
14 8 6 -10.7673 0.1616
14 8 9 -2.6493 0.7441
14 9 -7 -5.5347 2.8190
14 9 -4 20.7239 -1.8310
14 9 -1 -2.3707 1.6990
14 9 2 6.7988 -0.0617
14 9 5 3.7046 -0.4987
14 9 8 0.2168 1.8526
14 10 -8 -3.0305 1.6682
14 10 -5 1.8559 1.4893
14 10 -2 -2.6261 -2.1580
14 10 1 14.1425 2.8778
14 10 4 -3.2404 -2.4771
14 10 7 1.9284 1.7826
14 11 -9 3.1477 -2.3813
14 11 -6 -1.9875 2.6304
14 11 -3 -1.4775 -2.4768
14 11 0 3.7863 1.3193
14 11 3 -3.6444 -0.1702
14 11 6 -6.5009 -0.9433
14 11 9 -0.7815 2.3126
14 12 -7 0.3636 -0.3300
14 12 -4 -3.5589 -0.9510
14 12 -1 -4.5094 0.0539
14 12 2 4.3793 -0.0571
14 12 5 -2.7238 -1.3847
14 12 8 3.5484 2.0104
14 13 -8 -18.2578 0.3252
14 13 -5 -2.1677 1.7591
14 13 -2 -11.2670 -2.2502
14 13 1 -3.9622 3.2826
14 13 4 -0.5140 -1.7444
14 13 7 3.7648 1.3557
14 14 -6 -6.6774 1.0606
14 14 -3 2.2539 -0.1616
14 14 0 2.3291 -1.0084
14 14 3 -0.2281 2.8905
14 14 6 -2.7266 -2.5927
14 14 9 -9.1035 3.5147
14 15 -7 8.1110 -0.3094
14 15 -4 -0.4832 2.0238
14 15 -1 -6.2166 -3.4047
14 15 2 1.9835 3.2066
14 15 5 -6.0943 -1.7806
14 15 8 7.0572 -0.5348
14 16 -5 2.2377 1.1505
14 16 -2 -1.3890 -0.6865
14 16 1 -1.8261 0.8774
14 16 4 9.3541 -1.2533
14 16 7 0.8700 0.4847
14 17 -6 0.9049 0.1409
14 17 -3 9.2534 -0.5068
14 17 0 -0.6915 1.3984
14 17 3 -2.8550 -2.0969
14 17 6 0.9874 1.3400
14 18 -7 4.6328 0.0109
14 18 -4 8.6681 0.8210
14 18 -1 3.0156 -0.3811
14 18 2 -0.7651 0.1952
14 18 5 -0.3242 -0.3303
14 18 8 -8.5003 0.0831
14 19 -8 3.5354 -3.3312
14 19 -5 -5.0797 -0.8592
14 19 -2 -7.3195 -1.0867
14 19 1 6.6666 0.6501
14 19 4 -1.1432 -0.6335
14 19 7 -2.7926 -0.5699
14 20 -6 2.0624 0.1683
14 20 -3 6.4224 -0.2163
14 20 0 5.4438 -0.0233
14 20 3 6.1845 1.5012
14 20 6 -13.2804 -1.9451
14 21 -7 12.6900 1.1503
14 21 -4 -5.0534 0.6686
14 21 -1 6.3203 -0.2004
14 21 2 -0.8388 1.0724
14 21 5 -8.4613 -1.8281
14 22 -5 1.5200 -0.0721
14 22 -2 -4.0096 1.9691
14 22 1 14.1745 -2.5693
14 22 4 -1.7433 2.9962
14 22 7 0.0020 1.7074
14 23 -6 -4.4950 -1.5227
14 23 -3 9.2591 3.2462
14 23 0 -7.3616 -2.4771
14 23 3 3.1364 0.8109
14 23 6 -6.5765 0.5879
14 24 -4 2.0513 0.5602
14 24 -1 -6.7776 0.9588
14 24 2 -12.9980 -1.4195
14 24 5 -7.3571 2.2381
14 25 -5 -9.5767 0.0223
14 25 -2 -1.8566 0.6524
14 25 1 5.0340 -0.0189
14 25 4 -9.3207 0.3209
14 26 -3 -9.9348 -1.0016
14 26 0 1.6633 0.2389
14 26 3 8.7450 -0.3983
14 27 -4 -7.8592 -0.5606
14 27 -1 -9.4936 -1.0097
14 27 2 5.8962 -0.7310
14 27 5 13.1518 1.2479
14 28 -5 -0.0813 0.8938
14 28 -2 -3.8686 0.2543
14 28 1 24.9643 -1.4783
14 28 4 -16.2609 -2.5236
14 29 -3 3.1333 -1.4722
14 29 0 24.4514 -0.8468
14 29 3 -0.0269 0.1784
14 30 -1 8.7447 0.8169
14 30 2 3.7174 0.3727
14 31 -2 1.8432 1.3979
14 31 1 0.3592 -2.3498
14 32 0 -7.7154 -0.4769
15 1 -10 -7.7041 1.8244
15 1 -7 0.3560 -3.4149
15 1 -4 11.1725 2.7249
15 1 -1 1.0550 1.0612
15 1 2 1.2503 -4.3676
15 1 5 2.4614 6.6373
15 1 8 -0.8047 -3.6837
15 2 -8 0.6558 -3.2940
15 2 -5 -2.6836 2.8381
15 2 -2 1.9905 0.7952
15 2 1 -5.6333 -5.2027
15 2 4 -4.8064 7.5704
15 2 7 0.2097 -5.8536
15 2 10 -4.1575 4.5463
15 3 -9 5.5506 -0.8436
15 3 -6 -6.3542 1.2658
15 3 -3 -1.8607 -4.9146
15 3 0 -5.5985 7.2737
15 3 3 -0.7383 -7.3773
15 3 6 -5.7825 4.6538
15 3 9 6.4072 -2.6945
15 4 -10 -1.8687 -2.0367
15 4 -7 -0.9053 5.7404
15 4 -4 3.5475 -7.8104
15 4 -1 -19.5921 7.1266
15 4 2 8.6997 -4.4505
15 4 5 1.1916 0.9104
15 4 8 0.7598 -0.1809
15 5 -8 -0.5877 -2.4806
15 5 -5 2.4797 2.2666
15 5 -2 0.1440 -2.2324
15 5 1 0.9714 0.1901
15 5 4 -4.2407 1.3439
15 5 7 -8.4108 -2.8487
15 6 -9 -13.3552 0.1501
15 6 -6 1.1358 -3.7008
15 6 -3 -2.3756 6.5078
15 6 0 8.3020 -7.1512
15 6 3 -2.0803 5.1405
15 6 6 1.9930 -1.6674
15 6 9 0.0264 -2.5850
15 7 -7 4.8928 -1.7027
15 7 -4 1.4892 1.7406
15 7 -1 -1.6014 -0.6648
15 7 2 -0.1451 -1.9108
15 7 5 -1.2260 3.3357
15 7 8 -5.4221 -3.5363
15 8 -8 3.5899 -0.1615
15 8 -5 -2.8291 0.2459
15 8 -2 4.1903 -0.3612
15 8 1 2.4340 0.2731
15 8 4 -5.0160 0.0578
15 8 7 -9.3173 -1.0135
15 9 -9 -2.5187 1.9889
15 9 -6 -7.8715 0.2375
15 9 -3 -4.5490 -0.6803
15 9 0 -5.8641 0.7545
15 9 3 0.4853 -0.1038
15 9 6 0.6749 0.1193
15 9 9 5.1991 -0.4830
15 10 -7 -4.8626 0.1505
15 10 -4 0.1710 -1.3988
15 10 -1 -5.1566 1.4592
15 10 2 3.8616 -2.1750
15 10 5 -1.1528 1.3866
15 10 8 1.2176 -2.7501
15 11 -8 -4.4734 0.8235
15 11 -5 -2.5399 -2.2234
15 11 -2 -4.0929 0.1704
15 11 1 15.5570 0.9096
15 11 4 -3.3185 -2.1098
15 11 7 -1.8110 2.2095
15 12 -6 2.8614 1.2221
15 12 0 1.4035 2.8047
15 12 3 4.3856 -2.4726
15 12 6 -2.7829 1.9214
15 13 -7 -1.0771 1.1661
15 13 -1 -3.8993 0.3330
15 13 2 2.2024 1.4312
15 13 5 2.7723 -0.9626
15 13 8 0.8785 4.1446
15 14 -5 -1.0508 0.3286
15 14 -2 -7.1846 -0.0680
15 14 1 2.9775 0.2738
15 14 4 2.9532 0.7116
15 14 7 2.4101 -0.2494
15 15 -6 5.9688 0.6423
15 15 0 -3.8808 0.9681
15 15 3 3.4121 0.1646
15 15 6 -1.6602 -0.3827
15 16 -7 0.1768 -1.4960
15 16 -4 -0.1462 -0.5009
15 16 -1 1.1641 0.6664
15 16 2 1.9256 -0.5915
15 16 5 4.8508 -0.3155
15 16 8 3.6180 1.6324
15 17 -5 0.5222 -1.4128
15 17 -2 -2.3243 1.6960
15 17 1 11.6085 -1.8948
15 17 4 0.2997 0.8509
15 17 7 -0.5862 0.0432
15 18 -6 1.2842 -0.9424
15 18 -3 5.4433 -0.4353
15 18 0 -5.6436 0.5768
15 18 3 0.4688 -1.8901
15 18 6 -2.5095 2.2050
15 19 -7 7.2328 -2.5838
15 19 -4 -1.8018 0.0604
15 19 -1 2.6373 -1.7948
15 19 2 0.7885 1.1982
15 19 5 -0.4371 -1.6277
15 20 -5 6.8933 2.1511
15 20 -2 3.9639 -2.8222
15 20 1 -1.1705 2.4632
15 20 4 -0.8560 -1.3103
15 20 7 4.1522 0.3823
15 21 -6 3.3747 0.4213
15 21 -3 0.8716 0.7028
15 21 0 5.1740 -1.0128
15 21 3 -2.9481 0.7492
15 21 6 -4.0781 -2.3348
15 22 -7 -1.5203 -3.4739
15 22 -4 0.0168 -0.1515
15 22 -1 -3.4870 -0.0734
15 22 2 -4.5044 -1.0848
15 22 5 -6.9460 0.9631
15 23 -5 0.9890 -0.1703
15 23 -2 2.1141 1.7821
15 23 1 -2.1709 -2.5705
15 23 4 2.9734 1.8056
15 24 -6 -7.7538 -1.1722
15 24 -3 1.3688 1.1499
15 24 0 -14.4483 -1.6633
15 24 3 0.6158 1.7479
15 24 6 -5.8375 -1.7521
15 25 -4 -2.4319 0.3319
15 25 -1 0.8414 -1.3162
15 25 2 24.1219 1.4806
15 25 5 15.3276 1.1278
15 26 -5 3.2801 -3.0071
15 26 -2 -2.2963 -1.6650
15 26 1 3.3793 0.4599
15 26 4 -5.8437 -0.5163
15 27 -3 -1.7644 -1.4148
15 27 0 8.6876 0.6063
15 27 3 -1.4371 -0.2366
15 28 -4 9.6526 0.5429
15 28 -1 -7.4205 0.5862
15 28 2 23.5829 0.4483
15 29 -2 -6.8971 -0.3355
15 29 1 14.5816 0.3344
15 30 -3 -4.3362 1.6041
15 30 0 15.9145 -0.6897
15 30 3 -5.9824 -1.4737
15 31 -1 15.3566 2.0240
15 31 2 -4.4514 -1.7543
16 1 -9 8.6214 -0.8749
16 1 -6 -13.4433 -8.3383
16 1 -3 3.5369 20.7805
16 1 0 -17.2714 -28.5862
16 1 3 -4.0230 26.7039
16 1 6 -0.8429 -17.1335
16 1 9 21.9977 7.2670
16 2 -10 -3.6113 8.0996
16 2 -7 -8.9218 -11.2581
16 2 -4 5.5425 14.4212
16 2 -1 -6.0938 -14.8858
16 2 2 5.7873 9.0978
16 2 5 -6.9809 -2.3258
16 2 8 3.2165 -3.0454
16 3 -8 -11.7084 2.1724
16 3 -5 -9.1118 -2.2722
16 3 -2 -2.6000 -0.7954
16 3 1 5.9074 4.3937
16 3 4 -1.2649 -6.4981
16 3 7 5.7550 6.5239
16 4 -9 -1.9415 2.1859
16 4 -6 -0.4610 -1.7386
16 4 -3 -0.4241 0.8397
16 4 0 -5.7043 -0.7877
16 4 3 2.4928 0.7994
16 4 6 1.9309 -1.0601
16 4 9 -3.0717 2.2782
16 5 -7 9.0147 -0.6019
16 5 -4 8.9869 -0.3574
16 5 -1 -0.7551 0.6743
16 5 2 1.3845 0.5616
16 5 5 6.5087 -0.5841
16 5 8 8.1966 2.5715
16 6 -8 -5.3333 1.6590
16 6 -5 2.9264 -1.9804
16 6 -2 3.7524 2.6614
16 6 1 2.3536 -2.2834
16 6 4 -3.7622 1.1699
16 6 7 2.2501 -0.5055
16 7 -9 -6.0391 4.4697
16 7 -6 -1.0494 -2.3832
16 7 -3 -9.7302 1.1801
16 7 0 -2.9192 0.2829
16 7 3 -6.6834 -1.1061
16 7 6 -12.2652 -0.0841
16 7 9 -4.8218 -0.7237
16 8 -7 3.0132 -0.2214
16 8 -4 -1.6926 -0.1348
16 8 -1 5.0354 -1.9679
16 8 2 7.2822 3.6246
16 8 5 -3.0823 -4.3534
16 8 8 2.5782 2.6557
16 9 -8 0.6299 -2.5228
16 9 -5 0.4968 1.5651
16 9 -2 -3.2999 -2.1881
16 9 1 -1.4011 1.1654
16 9 4 6.1900 -0.8262
16 9 7 1.9540 -0.8193
16 10 -9 8.2071 -4.0482
16 10 -6 -4.2640 0.4730
16 10 -3 -3.5038 -0.6870
16 10 0 -1.0663 0.1526
16 10 3 4.6421 -1.0797
16 10 6 -4.1659 0.6608
16 10 9 6.0118 2.1052
16 11 -7 -8.6015 -0.3813
16 11 -4 -10.9198 -2.0253
16 11 -1 -4.1270 1.7820
16 11 2 10.3568 -1.3113
16 11 5 -0.4869 0.0013
16 11 8 -3.9593 -0.7897
16 12 -8 -7.4628 -0.8379
16 12 -5 8.3616 0.7900
16 12 -2 -2.0664 -0.8713
16 12 1 1.7906 1.0359
16 12 4 2.2692 -0.8752
16 12 7 -1.8614 -0.3335
16 13 -6 0.1321 0.4576
16 13 -3 -3.1237 0.8632
16 13 0 -0.6826 0.1696
16 13 3 0.9704 -0.7006
16 13 6 4.9179 0.6472
16 14 -7 -0.6184 -0.6567
16 14 -1 -10.0235 0.8142
16 14 2 4.8959 -1.1043
16 14 5 -0.9887 0.9252
16 14 8 8.1319 -0.1123
16 15 -5 -9.6620 0.2093
16 15 -2 -3.8239 -1.7106
16 15 1 -0.3638 2.1099
16 15 4 -2.6132 -1.3671
16 15 7 1.4639 1.1665
16 16 -6 -18.3342 -0.2343
16 16 -3 -5.7071 0.2524
16 16 0 -3.2691 -0.6014
16 16 3 0.5848 1.5197
16 16 6 0.5137 -0.3585
16 17 -1 0.2882 -0.8812
16 17 2 2.0981 -0.0249
16 17 5 5.3399 2.1842
16 17 8 7.4436 -3.1471
16 18 -5 10.8659 0.0238
16 18 -2 -1.0230 0.9642
16 18 1 8.1927 -2.5502
16 18 4 13.2379 2.6429
16 18 7 -0.9681 -1.4538
16 19 -6 1.1308 -1.2107
16 19 -3 4.4534 0.3610
16 19 0 -6.7432 -1.2504
16 19 3 0.8787 1.1966
16 19 6 5.4026 -0.5876
16 20 -7 8.8699 2.9958
16 20 -4 -0.2246 1.5088
16 20 -1 0.9643 -0.4772
16 20 2 -2.2852 0.4628
16 20 5 10.0139 -0.1035
16 21 -5 0.5570 -0.6761
16 21 -2 0.3669 -0.4267
16 21 1 7.6492 -0.0789
16 21 4 -0.9377 0.3130
16 22 -6 -10.3673 -2.4374
16 22 -3 -6.3797 -0.1317
16 22 0 2.0299 0.4693
16 22 3 -8.0566 -1.2152
16 22 6 -4.0786 1.5108
16 23 -4 -3.5129 -0.7277
16 23 -1 -0.9178 0.4577
16 23 2 -0.2004 -0.9671
16 23 5 7.4742 1.3698
16 24 -5 3.9015 -0.2673
16 24 -2 -5.3213 0.9454
16 24 1 4.8278 -0.6269
16 24 4 13.8722 1.7199
16 25 -3 -4.5979 -0.2983
16 25 0 -19.2568 0.0030
16 25 3 11.0156 1.3284
16 26 -4 -6.6802 -0.5607
16 26 -1 -6.5783 0.9236
16 26 2 5.9452 1.2141
16 26 5 12.0481 0.3150
16 27 -2 4.7987 -1.1770
16 27 1 22.2886 1.3023
16 27 4 -0.8167 1.1457
16 28 -3 2.6798 0.8632
16 28 0 -0.9757 0.7011
16 28 3 -11.7037 -0.7184
16 29 -1 -0.4481 3.5083
16 29 2 -3.7931 -3.4953
16 30 -2 0.7760 4.6175
16 30 1 -22.2430 -0.4687
16 31 0 -5.1757 1.5324
17 1 -8 -2.6149 -11.6449
17 1 -5 -3.1306 8.8913
17 1 -2 -8.4376 -0.3181
17 1 1 -8.1466 -11.0796
17 1 4 -0.2765 18.2686
17 1 7 8.3944 -17.0462
17 2 -9 7.4320 -6.6722
17 2 -6 -8.6460 6.5535
17 2 -3 9.4181 -2.3659
17 2 0 0.5335 -5.9912
17 2 3 -4.7366 11.5814
17 2 6 0.8879 -11.5607
17 2 9 1.4296 10.6799
17 3 -7 -2.7635 -1.3418
17 3 -4 3.6045 3.8757
17 3 -1 -4.1425 -6.5331
17 3 2 3.9993 8.6060
17 3 5 -0.8481 -6.2253
17 3 8 0.8216 3.6104
17 4 -8 -7.1118 -3.4114
17 4 -5 -3.3456 4.2387
17 4 -2 2.9940 -1.3284
17 4 1 -10.7667 -2.1596
17 4 4 3.6586 5.5810
17 4 7 3.7064 -4.4177
17 5 -9 1.4266 -0.3008
17 5 -6 3.6527 -0.9109
17 5 -3 -0.8367 -0.6984
17 5 0 5.9989 4.3624
17 5 3 -1.2008 -6.7667
17 5 6 -5.1057 7.8725
17 5 9 -7.2924 -4.7648
17 6 -7 3.8982 4.3506
17 6 -4 14.6687 -5.3279
17 6 -1 -4.9023 6.3700
17 6 2 2.7999 -4.1908
17 6 5 -0.4551 1.5821
17 6 8 -11.7620 1.1501
17 7 -8 -2.5598 -0.2520
17 7 -5 0.2635 0.3854
17 7 -2 4.2951 -1.2274
17 7 1 5.1713 1.7104
17 7 4 0.6207 -1.4712
17 7 7 -2.1964 0.8639
17 8 -9 -1.2778 2.2387
17 8 -6 -12.1711 1.1867
17 8 -3 -5.2628 -1.1096
17 8 0 4.1206 0.7895
17 8 3 -3.1478 0.4963
17 8 6 -13.3266 -1.1564
17 8 9 -4.0461 -0.5787
17 9 -7 4.5730 1.4379
17 9 -4 -0.0067 0.2178
17 9 -1 -1.1402 -0.6106
17 9 2 -2.1871 1.0455
17 9 5 -4.4060 -0.3591
17 9 8 -5.3114 0.7022
17 10 -8 0.0967 -1.0117
17 10 -5 1.3175 -0.0210
17 10 -2 0.4620 1.0969
17 10 1 -0.1723 -0.9961
17 10 4 4.6200 0.6682
17 10 7 15.6273 1.4867
17 11 -6 -5.1603 -3.0237
17 11 -3 -3.7096 3.3760
17 11 0 -5.6921 -2.7064
17 11 3 -10.6077 1.0967
17 11 6 5.8429 -0.1216
17 12 -7 -2.6859 0.3958
17 12 -4 -10.7420 -0.2816
17 12 -1 6.8395 1.0842
17 12 2 -0.8394 -1.4985
17 12 5 -2.0254 0.8662
17 12 8 -3.8323 -1.3744
17 13 -8 -3.9435 2.2780
17 13 -5 -18.0734 -0.8889
17 13 -2 -6.9038 1.7397
17 13 1 -3.6577 -1.7758
17 13 4 -6.8070 0.7068
17 13 7 4.1643 -0.8380
17 14 -6 -5.8315 -0.3866
17 14 -3 9.6740 -1.1250
17 14 0 -10.1611 1.6668
17 14 3 -9.3287 -2.2617
17 14 6 2.9926 0.4595
17 15 -4 10.4965 -1.8354
17 15 -1 -0.8439 1.9353
17 15 2 -8.9410 -0.6874
17 15 5 4.8358 0.1903
17 15 8 10.6598 4.2601
17 16 -5 -4.3364 -0.7985
17 16 -2 -6.2388 0.5394
17 16 1 7.0619 0.9768
17 16 4 2.0412 -1.0059
17 16 7 5.8403 0.8981
17 17 -3 3.5492 -1.3882
17 17 0 -21.6842 0.8627
17 17 3 -1.7392 -0.3833
17 17 6 -0.2498 0.1294
17 18 -7 13.2262 1.0430
17 18 -4 13.0726 1.0540
17 18 -1 7.4761 -2.1503
17 18 2 10.9469 1.6651
17 18 5 0.9947 -1.4625
17 19 -5 4.7869 0.2614
17 19 -2 -1.4383 0.7931
17 19 1 7.2586 -0.8374
17 19 4 4.6498 2.2939
17 19 7 3.0374 -1.9242
17 20 -6 -9.9769 3.3986
17 20 -3 4.9350 0.3232
17 20 0 4.5563 0.2993
17 20 3 2.6211 0.4369
17 20 6 -1.2932 -0.5053
17 21 -4 1.4933 -1.7186
17 21 -1 -1.2435 1.3654
17 21 2 -3.7448 -1.3517
17 21 5 -1.2443 -1.1301
17 22 -5 2.1848 -1.2772
17 22 -2 -7.1273 -0.2627
17 22 1 -0.4071 0.7875
17 22 4 -8.4765 -3.8529
17 23 -6 -0.2370 1.7262
17 23 -3 -2.6971 -0.0487
17 23 0 -7.8412 0.5705
17 23 3 -1.0133 -1.1725
17 23 6 -15.3047 -2.5113
17 24 -4 8.4576 1.1306
17 24 -1 -9.3772 -1.9895
17 24 2 -4.2336 2.1738
17 24 5 -10.8741 -1.6362
17 25 -5 -13.7068 2.4584
17 25 -2 10.7794 -0.8076
17 25 1 -3.7441 0.6430
17 25 4 7.6881 -0.4533
17 26 -3 0.1622 1.8801
17 26 0 5.8516 0.8619
17 26 3 17.9842 1.7206
17 27 -4 0.7235 4.5521
17 27 -1 1.9999 0.3757
17 27 2 -5.0573 0.1359
17 28 -2 3.9523 0.8112
17 28 1 -6.4268 -1.3380
17 29 0 10.2087 1.4801
17 30 -1 -4.9825 1.1282
18 1 -7 -3.3803 -0.5575
18 1 -4 1.7548 1.3090
18 1 -1 2.3562 -2.2862
18 1 2 -1.2039 2.6598
18 1 5 0.2994 -2.7063
18 1 8 4.2747 3.1361
18 2 -8 2.8836 -5.9562
18 2 -5 -2.3140 13.9973
18 2 -2 -2.0456 -19.8347
18 2 1 0.3670 19.4164
18 2 4 -1.5881 -12.4874
18 2 7 -9.4028 4.5564
18 3 -9 6.7854 -6.3130
18 3 -6 0.5353 5.5065
18 3 -3 -2.3003 -3.2590
18 3 0 -4.5336 0.2231
18 3 3 0.6969 3.7059
18 3 6 -4.8479 -4.5165
18 3 9 -1.6100 4.0512
18 4 -7 -6.9168 -1.4112
18 4 -4 3.0635 3.8236
18 4 -1 -2.6462 -4.4834
18 4 2 -1.9717 2.7071
18 4 5 2.6336 -0.8999
18 4 8 1.2594 -0.0998
18 5 -8 -6.3076 4.3734
18 5 -5 -3.1266 -6.1764
18 5 -2 -0.4197 7.5965
18 5 1 1.6675 -5.1647
18 5 4 1.7408 1.2255
18 5 7 -27.5227 1.8038
18 6 -9 0.1789 -0.9980
18 6 -6 3.8466 -0.1039
18 6 -3 1.0494 -0.8366
18 6 0 0.5811 1.7134
18 6 3 3.0461 -2.2100
18 6 6 -7.1963 1.5399
18 6 9 -5.6180 1.1399
18 7 -7 -1.0383 -2.2301
18 7 -4 4.5599 3.4414
18 7 -1 1.4590 -3.5764
18 7 2 -4.5355 2.3615
18 7 5 7.7576 -0.1955
18 7 8 -0.7990 -0.8768
18 8 -8 5.5101 1.6256
18 8 -5 3.4522 0.4138
18 8 -2 4.3097 -0.8698
18 8 1 -2.4991 1.8705
18 8 4 -0.8089 -1.7222
18 8 7 1.0804 2.4074
18 9 -6 -3.1678 3.7656
18 9 -3 -5.1665 -4.0017
18 9 0 3.8315 4.8315
18 9 3 2.7725 -3.3867
18 9 6 -2.9171 1.7444
18 9 9 12.1134 0.7191
18 10 -7 6.6762 0.8789
18 10 -4 1.0984 -0.5048
18 10 -1 0.6150 1.1121
18 10 2 2.7518 -1.5995
18 10 5 6.6674 1.1816
18 10 8 -3.5498 -0.5151
18 11 -8 7.9872 -0.8847
18 11 -5 -5.0592 -0.4078
18 11 -2 -5.3358 2.0451
18 11 1 -5.5935 -4.0287
18 11 4 -7.1762 4.3530
18 11 7 0.2179 -4.0570
18 12 -6 -2.4464 -1.9905
18 12 -3 -9.4403 3.2135
18 12 0 -0.1666 -2.3805
18 12 3 0.5590 -0.1592
18 12 6 1.6138 0.5490
18 13 -7 16.2654 1.5876
18 13 -4 -2.3047 -0.5918
18 13 -1 -4.4487 0.3640
18 13 2 -2.7911 -1.0666
18 13 5 -2.5330 0.5447
18 13 8 2.0423 -1.9327
18 14 -8 1.6142 -1.5246
18 14 -5 -8.4373 -1.5996
18 14 -2 4.8318 0.6320
18 14 1 -1.8165 -0.4760
18 14 4 8.8812 -0.6318
18 14 7 2.6314 0.5500
18 15 -6 12.0762 1.9817
18 15 -3 -2.6688 -1.5977
18 15 0 -5.9007 2.0748
18 15 3 -0.0210 -2.0020
18 15 6 -0.6763 2.0101
18 16 -4 11.5335 -1.0982
18 16 -1 0.5756 2.1146
18 16 2 1.5927 -1.6225
18 16 5 3.6043 -0.5128
18 17 -5 -13.4220 0.7534
18 17 -2 4.3325 -0.6303
18 17 1 4.8709 1.7555
18 17 4 -2.0623 -2.8523
18 17 7 -2.3191 3.7081
18 18 -6 -1.4216 0.4980
18 18 -3 0.6004 1.0545
18 18 0 -5.6023 -1.0168
18 18 3 0.1901 2.4248
18 18 6 4.3124 -0.3854
18 19 -7 0.9851 2.4989
18 19 -4 1.9391 1.0882
18 19 -1 1.8052 -0.5964
18 19 2 10.3528 1.8737
18 19 5 4.7372 1.8132
18 20 -5 -0.5650 2.5398
18 20 -2 -1.5858 -1.9881
18 20 1 8.4293 2.4189
18 20 4 -6.1987 -0.6757
18 21 -6 -7.5423 -2.4137
18 21 -3 -1.5760 -3.4050
18 21 0 -4.5651 1.8895
18 21 3 0.8611 -2.2472
18 21 6 38.4061 0.1656
18 22 -4 -1.0608 0.0413
18 22 -1 6.6546 0.8543
18 22 2 -1.1602 -0.6534
18 22 5 -11.2918 0.4172
18 23 -5 1.5597 0.5474
18 23 -2 5.9743 1.0772
18 23 1 -6.3169 -1.0946
18 23 4 -35.5710 -0.2330
18 24 -3 -8.6430 1.1316
18 24 0 -9.6398 -1.5960
18 24 3 -16.4443 1.2923
18 25 -4 1.7405 0.8304
18 25 -1 7.4453 -2.5186
18 25 2 3.4325 2.0898
18 26 -2 -0.6852 -0.2844
18 26 1 1.6275 0.3983
18 26 4 3.3009 3.4749
18 27 -3 -3.8975 0.5751
18 27 0 2.3391 -1.4006
18 27 3 -6.9228 0.9516
18 28 -1 7.0784 -0.5321
18 28 2 14.6100 -0.7651
18 29 -2 -3.2097 -1.3384
18 29 1 1.1444 1.8323
19 1 -9 0.6438 -2.8990
19 1 -6 -9.6391 9.4124
19 1 -3 -1.2433 -12.4889
19 1 0 -2.4267 12.3226
19 1 3 -0.2216 -7.1824
19 1 6 -3.5293 1.6542
19 1 9 -2.8807 0.3365
19 2 -7 7.7933 8.3823
19 2 -4 1.1936 -6.3163
19 2 -1 -3.4781 -0.4348
19 2 2 1.2385 6.6039
19 2 5 1.6952 -9.1710
19 2 8 -8.4273 8.4657
19 3 -8 -3.6893 4.1459
19 3 -5 -3.2887 -3.6964
19 3 -2 1.3691 1.3306
19 3 1 7.1731 1.7165
19 3 4 -5.0066 -4.2830
19 3 7 -0.4987 3.0025
19 4 -9 8.8956 0.1590
19 4 -6 -8.4098 3.3175
19 4 -3 -3.1852 -6.0001
19 4 0 4.3777 6.0865
19 4 3 -2.7499 -4.8055
19 4 6 -0.7010 2.4182
19 4 9 -2.0037 -2.9996
19 5 -7 -0.9051 -3.5012
19 5 -4 -8.8807 1.6387
19 5 -1 -1.4415 -0.0736
19 5 2 -4.7175 -2.0690
19 5 5 8.0752 2.9699
19 5 8 2.5101 -3.1972
19 6 -8 -1.2364 -1.0223
19 6 -5 10.7719 -1.6660
19 6 -2 6.2286 3.9116
19 6 1 -6.4286 -6.3680
19 6 4 4.6474 7.0203
19 6 7 10.7207 -4.0941
19 7 -9 1.0145 -2.2480
19 7 -6 -0.0534 -1.3198
19 7 -3 3.1587 3.4175
19 7 0 1.0595 -5.7099
19 7 3 4.5713 6.4983
19 7 6 -5.1977 -3.4484
19 7 9 -4.6435 2.8466
19 8 -7 -3.5328 0.4492
19 8 -4 1.9772 0.3640
19 8 -1 3.4982 0.0050
19 8 2 1.8588 0.6878
19 8 5 2.2787 -0.8025
19 8 8 2.4126 2.5975
19 9 -8 -3.8832 2.3396
19 9 -5 11.4585 -1.0974
19 9 -2 2.5577 0.5196
19 9 1 0.8946 0.7181
19 9 4 -5.7023 -1.1465
19 9 7 3.1252 1.4367
19 10 -6 -4.0592 -3.1579
19 10 -3 0.7383 2.1906
19 10 0 -0.2952 -2.2460
19 10 3 2.9317 1.8900
19 10 6 -11.7407 0.3409
19 11 -7 0.9279 -1.4445
19 11 -4 -12.1089 1.1889
19 11 -1 1.8306 -1.4013
19 11 2 1.0433 1.3863
19 11 5 1.0747 0.2834
19 11 8 1.7876 -0.4947
19 12 -8 -0.8734 -1.4974
19 12 -5 13.6046 0.9709
19 12 -2 -1.9268 -0.6692
19 12 1 10.6057 -0.4306
19 12 4 2.0478 0.8896
19 12 7 -1.7117 -1.0282
19 13 -6 4.1225 -1.2024
19 13 -3 -13.0027 0.8687
19 13 0 -3.6488 -2.5484
19 13 3 -3.3537 3.3740
19 13 6 -5.2394 -1.8787
19 14 -7 0.2890 -3.2911
19 14 -4 -10.2982 0.3232
19 14 -1 -3.2271 -1.0041
19 14 2 -3.2609 0.0252
19 14 5 1.4548 0.5013
19 14 8 9.3450 -3.1622
19 15 -5 -5.9267 -0.5094
19 15 -2 -0.6483 0.6223
19 15 1 1.9214 -1.0344
19 15 4 1.5358 -0.1135
19 15 7 0.0984 -0.0085
19 16 -6 -13.3487 -2.1726
19 16 -3 1.5998 1.3322
19 16 0 -1.3957 -0.0407
19 16 3 -7.5887 -1.5377
19 16 6 -5.5268 -1.3308
19 17 -7 -2.6641 -0.8619
19 17 -4 0.4503 -1.1342
19 17 -1 0.2050 1.7236
19 17 2 -0.6097 -1.5729
19 17 5 18.8898 0.3150
19 18 -5 3.8068 0.1144
19 18 -2 7.7529 -0.3242
19 18 1 -12.9329 0.3899
19 18 4 22.6947 0.1282
19 19 -6 -6.6320 0.0261
19 19 -3 0.2815 -0.5531
19 19 0 -4.8046 0.8462
19 19 3 5.8454 -0.7471
19 19 6 5.3530 0.1762
19 20 -4 -9.4143 -1.0331
19 20 -1 0.7781 -0.1503
19 20 2 -9.9460 1.5994
19 21 -5 -10.8139 -3.0371
19 21 -2 1.3529 -1.6781
19 21 1 2.9480 1.9503
19 21 4 -0.6910 -1.3152
19 22 -3 -2.3031 -0.5328
19 22 0 -9.1389 0.7634
19 22 3 7.6924 -0.6611
19 23 -4 -4.9885 1.6227
19 23 -1 0.7538 0.1548
19 23 2 3.0735 -1.9935
19 23 5 -2.7567 -2.7029
19 24 -5 4.9981 -1.5920
19 24 -2 -0.0185 0.0583
19 24 1 -15.6481 -0.9037
19 24 4 2.6953 -0.6228
19 25 -3 3.7560 -0.8915
19 25 0 -6.0507 -0.9836
19 25 3 -18.3820 -1.6764
19 26 -4 -6.4512 -2.5911
19 26 -1 -4.8667 0.4029
19 26 2 13.7566 0.3054
19 27 -2 -3.5933 -3.7193
19 27 1 7.7473 3.7696
19 28 0 12.1464 3.1493
20 1 -8 1.0451 -6.4504
20 1 -5 -8.3066 8.8556
20 1 -2 2.6696 -7.0916
20 1 1 -0.4973 3.5703
20 1 4 4.0727 2.5166
20 1 7 -2.6110 -5.7654
20 2 -9 2.0423 4.1975
20 2 -6 1.2708 -0.4035
20 2 -3 2.0562 -3.8158
20 2 0 0.8425 6.8226
20 2 3 -2.8961 -8.1243
20 2 6 6.9312 5.1504
20 2 9 -6.7094 -6.0427
20 3 -7 9.9777 5.9120
20 3 -4 -0.0856 -11.9679
20 3 -1 -6.0731 14.3125
20 3 2 -1.8622 -11.6865
20 3 5 7.1519 4.9488
20 3 8 1.6365 0.0009
20 4 -8 -3.3311 1.8100
20 4 -5 -6.1513 -1.6389
20 4 -2 -3.9917 -2.2998
20 4 1 3.0577 4.9402
20 4 4 3.9123 -6.7579
20 4 7 -0.9334 4.9250
20 5 -9 -0.2143 -2.6675
20 5 -6 -3.2121 -3.1373
20 5 -3 1.7854 4.9239
20 5 0 0.4077 -6.8340
20 5 3 -6.2872 6.1905
20 5 6 6.2591 -4.0934
20 5 9 7.9519 5.0113
20 6 -7 -4.9347 -5.5070
20 6 -4 10.3940 5.4437
20 6 -1 -1.0951 -4.2186
20 6 2 -3.4725 0.4002
20 6 5 3.3623 2.0883
20 6 8 -5.4084 -4.9640
20 7 -8 1.2199 -1.6862
20 7 -5 -6.6916 1.7936
20 7 -2 0.4146 -1.6781
20 7 1 -10.9546 0.6764
20 7 4 2.4723 0.3684
20 7 7 -1.7343 -2.2293
20 8 -6 -4.6463 1.4168
20 8 -3 0.3992 -1.1181
20 8 0 0.3986 1.0957
20 8 3 7.1223 -1.1880
20 8 6 0.2202 -1.0141
20 9 -7 -4.6169 -0.8137
20 9 -4 13.0343 -0.9763
20 9 -1 2.0190 1.4521
20 9 2 2.8451 -1.9322
20 9 5 1.6398 1.6033
20 9 8 -12.2277 0.8092
20 10 -8 0.8826 0.1983
20 10 -5 -0.2909 -1.6361
20 10 -2 -2.1195 1.6273
20 10 1 2.3663 -1.3924
20 10 4 -4.4480 0.9481
20 10 7 -6.2101 -0.4049
20 11 -6 -6.9979 0.8193
20 11 -3 -15.9506 -1.4848
20 11 0 -5.6054 1.4261
20 11 3 1.6893 0.7256
20 11 6 4.0116 -0.8952
20 12 -7 10.1323 -0.1753
20 12 -4 0.7323 3.2837
20 12 -1 3.3406 -4.4485
20 12 2 -3.4972 4.5198
20 12 5 -0.4186 -3.0140
20 12 8 -3.3819 -0.1885
20 13 -8 -2.4888 -4.8344
20 13 -5 -7.5509 2.2442
20 13 -2 -9.1234 -3.2852
20 13 1 7.9460 2.4430
20 13 4 -2.3293 -0.9573
20 13 7 4.1617 -0.0871
20 14 -6 3.5795 0.8127
20 14 -3 -6.5515 -1.0044
20 14 0 -9.1372 -0.1031
20 14 3 0.4328 0.2202
20 14 6 1.5528 -1.2175
20 15 -7 -2.4736 3.1902
20 15 -4 0.8000 -0.4580
20 15 -1 1.0923 0.8650
20 15 2 -5.8860 -0.5952
20 15 5 5.0884 -0.3699
20 16 -5 -5.1609 -1.2974
20 16 -2 -4.3482 2.0070
20 16 1 -3.2083 -3.0984
20 16 4 11.9082 3.0538
20 16 7 2.7337 -3.5006
20 17 -6 2.4790 -4.0510
20 17 -3 -1.0390 2.7403
20 17 0 -6.1291 -2.8815
20 17 3 -2.3014 1.0798
20 17 6 7.0752 0.3114
20 18 -4 -0.0169 -0.4153
20 18 -1 2.8938 0.4440
20 18 2 -9.2023 -1.0552
20 18 5 -4.7667 0.9349
20 19 -5 4.8215 -0.0045
20 19 -2 17.7857 -0.3997
20 19 1 -2.0382 0.6841
20 19 4 -12.8631 -1.2291
20 20 -6 -0.1975 -0.6690
20 20 -3 -5.3592 -1.3735
20 20 0 1.6480 0.8518
20 20 3 9.8030 1.0437
20 21 -4 -3.5719 -1.4402
20 21 -1 -6.7079 -0.3671
20 21 2 1.7552 0.5697
20 22 -5 -0.8113 2.9344
20 22 -2 -4.5293 1.8284
20 22 1 -12.1490 -1.3790
20 23 -3 -1.7846 1.1036
20 23 0 -9.8691 -1.5108
20 23 3 5.8169 2.0747
20 24 -1 -1.9331 0.5933
20 24 2 -0.5006 -2.7058
20 25 -2 7.3753 2.0926
20 25 1 -10.6529 -0.7460
20 26 -3 5.3230 -1.5387
20 26 0 3.3553 3.4169
20 26 3 -15.4596 -3.9307
20 27 -1 8.4205 -1.4003
20 27 2 3.4333 2.2039
21 1 -7 4.4378 -10.7611
21 1 -4 0.7813 16.6236
21 1 -1 -8.1568 -15.1430
21 1 2 -3.1520 7.2858
21 1 5 -1.9730 1.6280
21 1 8 7.5855 -7.3167
21 2 -8 -1.2884 2.6300
21 2 -5 11.5932 -5.2684
21 2 -2 2.7318 4.3422
21 2 1 9.9648 -2.2196
21 2 4 1.6995 -0.0239
21 2 7 -1.6810 2.1772
21 3 -9 0.5697 4.6998
21 3 -6 9.8892 -1.6640
21 3 -3 0.5244 -0.0846
21 3 0 -1.1750 3.7377
21 3 3 0.3310 -4.9829
21 3 6 1.7730 4.6902
21 3 9 3.3538 -2.3352
21 4 -7 2.8309 0.4364
21 4 -4 -1.7121 0.0982
21 4 -1 2.4295 -0.1964
21 4 2 2.7686 0.3792
21 4 5 12.0755 0.2133
21 4 8 0.0287 -0.8422
21 5 -8 -0.1030 -5.0478
21 5 -5 -3.4531 4.2089
21 5 -2 -1.1300 -3.0819
21 5 1 0.5040 1.8478
21 5 4 3.8944 0.2119
21 5 7 -2.6055 -0.4617
21 6 -6 -5.9254 0.8924
21 6 -3 -1.3541 -0.3924
21 6 0 0.6663 -1.2633
21 6 3 9.9924 1.0961
21 6 6 -8.1626 -1.6839
21 6 9 -5.9948 0.0326
21 7 -7 0.1752 1.3493
21 7 -4 0.8108 -0.0472
21 7 -1 -2.8191 -1.9117
21 7 2 5.6482 3.4899
21 7 5 -1.5452 -3.4788
21 7 8 0.9480 2.0209
21 8 -8 0.1564 2.8545
21 8 -5 -1.8560 0.9277
21 8 -2 8.0289 -1.5005
21 8 1 1.6834 2.0567
21 8 4 0.9697 -2.0893
21 8 7 0.4434 -0.1789
21 9 -6 -1.9349 -0.6717
21 9 -3 2.2308 -0.7375
21 9 0 -0.3244 1.5111
21 9 3 7.3082 -1.9363
21 9 6 -11.6810 2.7323
21 10 -7 1.4166 -1.1865
21 10 -4 5.7408 0.5518
21 10 -1 -0.6087 0.7579
21 10 2 8.0471 -0.8566
21 10 5 -4.8815 1.1869
21 10 8 -9.4040 2.5599
21 11 -8 9.1861 1.1996
21 11 -5 -3.8435 0.2400
21 11 -2 5.4415 0.5357
21 11 1 1.2516 0.9554
21 11 4 -10.2960 -0.4228
21 11 7 -1.2901 1.5890
21 12 -6 5.2458 1.8553
21 12 -3 1.1369 -0.6299
21 12 0 2.7742 -0.3379
21 12 3 1.4044 1.6525
21 12 6 -7.0529 -1.6729
21 13 -7 4.4684 -0.0062
21 13 -4 8.3820 -0.5527
21 13 -1 -7.3228 -0.5785
21 13 2 1.3938 1.8702
21 13 5 7.5849 -1.5150
21 14 -5 -4.7879 1.7326
21 14 -2 2.4237 -1.9521
21 14 1 1.4132 3.6107
21 14 4 -4.0828 -2.6117
21 14 7 1.3067 3.3664
21 15 -6 18.8840 1.0227
21 15 -3 -3.5075 0.2015
21 15 0 1.8418 1.1153
21 15 3 5.0147 -0.6865
21 15 6 -2.8552 0.2131
21 16 -7 0.3200 -0.6647
21 16 -4 9.6396 0.3349
21 16 -1 0.2820 -0.3348
21 16 2 -5.6813 -1.2373
21 16 5 4.0950 0.6473
21 17 -5 2.9528 -1.1710
21 17 -2 11.2660 1.6580
21 17 1 1.4246 -2.4141
21 17 4 -9.9073 0.4052
21 18 -6 3.2501 0.8022
21 18 -3 0.1862 -0.2716
21 18 0 4.0239 0.8695
21 18 3 -6.0149 -1.6550
21 18 6 2.4470 1.3804
21 19 -4 -8.6246 -0.4567
21 19 -1 -1.8350 0.6382
21 19 2 -12.9648 -0.2688
21 20 -5 4.2684 0.5435
21 20 -2 1.3209 0.0297
21 20 1 5.9489 -0.0351
21 20 4 -6.4400 0.2353
21 21 -3 4.0603 1.2401
21 21 0 1.7437 0.3887
21 21 3 -24.5448 -0.4111
21 22 -4 4.1406 2.2908
21 22 -1 0.0777 1.8131
21 22 2 -6.4606 -1.2324
21 23 -2 7.6797 1.2392
21 23 1 -16.3809 -1.2346
21 23 4 20.0566 2.3310
21 24 -3 -9.8186 -0.2954
21 24 0 4.8671 -0.5192
21 24 3 -20.0183 -0.9587
21 25 -1 7.8804 0.6207
21 25 2 0.0572 0.1899
21 26 -2 2.6840 0.1809
21 26 1 -13.3793 -1.4977
21 27 0 15.5038 -1.8238
22 1 -9 -6.7983 -1.9976
22 1 -6 -1.8814 1.8672
22 1 -3 2.7900 0.4299
22 1 0 0.4116 -2.3530
22 1 3 1.2067 3.5713
22 1 6 -0.6912 -1.9946
22 1 9 -0.1279 3.1128
22 2 -7 1.6527 2.8541
22 2 -4 -1.2948 -2.8757
22 2 -1 -5.3657 0.1264
22 2 2 0.1022 2.6136
22 2 5 -1.8693 -3.7640
22 2 8 1.3939 4.5165
22 3 -8 -1.0879 0.9260
22 3 -5 -0.4627 -0.3332
22 3 -2 -1.3800 3.6024
22 3 1 2.8248 -4.9604
22 3 4 -0.0249 5.3022
22 3 7 2.1552 -4.3022
22 4 -6 5.3752 -2.6120
22 4 -3 -0.2846 4.9369
22 4 0 -3.5306 -6.0511
22 4 3 -4.8108 4.9751
22 4 6 -0.3423 -3.5753
22 4 9 1.2502 0.8042
22 5 -7 3.1132 2.5887
22 5 -4 -8.9869 -1.3965
22 5 -1 -2.2172 1.5030
22 5 2 -3.2959 -0.5279
22 5 5 3.8420 -1.7909
22 5 8 -5.1336 0.0548
22 6 -8 -1.4803 1.5668
22 6 -5 0.2700 1.9478
22 6 -2 3.4124 -3.1176
22 6 1 -5.8175 2.9901
22 6 4 -8.4156 -2.7251
22 6 7 6.6337 0.6565
22 7 -6 -5.8866 3.3760
22 7 -3 -2.6234 -2.7857
22 7 0 -0.3448 2.5792
22 7 3 8.4346 -1.0467
22 7 6 0.4622 -0.6627
22 8 -7 -3.6436 3.9473
22 8 -4 -2.7364 -3.9020
22 8 -1 8.4839 2.9208
22 8 2 -0.9162 -1.6726
22 8 5 -2.3125 -1.4326
22 8 8 -3.4826 0.1179
22 9 -8 1.7956 -2.8999
22 9 -5 11.7235 -1.0143
22 9 -2 -0.6211 -1.4677
22 9 1 -4.7073 2.0348
22 9 4 -13.5348 -2.8997
22 9 7 -7.0808 2.2757
22 10 -6 3.6861 2.0674
22 10 -3 3.7395 -1.2230
22 10 0 -8.7453 1.0354
22 10 3 5.5442 -1.1968
22 10 6 4.0023 0.9007
22 11 -7 4.3050 -0.7549
22 11 -4 -16.4548 2.2519
22 11 -1 -2.9970 -0.3729
22 11 2 4.2367 -1.2161
22 11 5 -2.0587 2.4123
22 12 -5 7.9614 0.5461
22 12 -2 -1.5631 1.0571
22 12 1 2.0705 -1.2569
22 12 4 -1.0208 1.4229
22 12 7 -3.5047 1.2553
22 13 -6 4.8001 0.6342
22 13 -3 3.4883 -1.4052
22 13 0 7.2847 2.1747
22 13 3 -2.9309 -1.7035
22 13 6 -0.9260 3.1958
22 14 -7 -4.7525 2.4326
22 14 -4 6.3476 -0.6734
22 14 -1 6.1438 1.2408
22 14 2 8.7884 -0.2882
22 14 5 4.2243 1.5109
22 15 -5 13.9079 -1.0383
22 15 -2 -6.8972 1.1560
22 15 1 6.1043 -1.1474
22 15 4 10.5515 1.4603
22 16 -6 -5.3882 -2.1971
22 16 -3 -9.6218 -0.2248
22 16 0 -4.4800 -0.5657
22 16 3 8.2370 0.4421
22 16 6 -3.2078 -0.1417
22 17 -4 -11.5418 2.1694
22 17 -1 -3.9740 -2.0275
22 17 2 2.3103 1.6455
22 17 5 4.9762 -1.0780
22 18 -5 0.5640 2.1949
22 18 -2 12.5985 0.3959
22 18 1 7.3236 -0.0885
22 18 4 7.4273 1.3600
22 19 -3 2.6272 1.3561
22 19 0 0.8116 -1.9386
22 19 3 -2.5791 1.3392
22 20 -4 -8.3250 0.1946
22 20 -1 1.0559 -0.2878
22 20 2 -8.0267 -0.5188
22 21 -2 2.0155 -0.4006
22 21 1 1.4491 0.2868
22 22 -3 1.4550 1.2788
22 22 0 6.6063 1.2226
22 22 3 -10.7843 -0.6754
22 23 -1 6.4307 1.4409
22 23 2 -8.3437 1.3535
22 24 -2 -8.9134 -3.1399
22 24 1 -8.1883 2.4176
22 25 0 -5.0371 -2.6499
22 26 -1 7.2046 -4.7323
23 1 -8 -3.9099 1.0861
23 1 -5 -1.0693 6.9577
23 1 -2 -6.4448 -17.6310
23 1 1 -0.6776 22.8140
23 1 4 4.9000 -21.6066
23 1 7 5.1191 14.5970
23 2 -9 -0.6262 -8.2697
23 2 -6 3.3945 10.3020
23 2 -3 1.4337 -12.4581
23 2 0 -8.3910 10.7199
23 2 3 -4.0553 -4.8739
23 2 6 7.6253 0.6346
23 3 -7 3.2074 -1.7343
23 3 -4 0.9100 3.7855
23 3 -1 -5.4984 -1.6174
23 3 2 -3.8263 -0.9028
23 3 5 -7.1495 3.3340
23 3 8 -1.3212 -3.4582
23 4 -8 2.0689 -1.9641
23 4 -5 1.3214 0.6454
23 4 -2 4.6978 0.3686
23 4 1 -2.1090 -1.7966
23 4 4 6.5591 1.2283
23 4 7 -3.4952 -0.1345
23 5 -6 7.6111 -2.5056
23 5 -3 -0.0123 2.6108
23 5 0 -1.5284 -0.0965
23 5 3 0.1983 -1.4498
23 5 6 5.1041 2.6468
23 6 -7 -1.0083 -0.3001
23 6 -4 8.2953 -1.7793
23 6 -1 -2.3272 2.3285
23 6 2 -3.5392 -1.9270
23 6 5 -1.6161 3.0468
23 6 8 -0.7165 0.4776
23 7 -8 -12.8510 -1.2272
23 7 -5 -4.7309 -0.5083
23 7 -2 -3.2882 0.5398
23 7 1 -5.8564 0.9801
23 7 4 4.1173 -1.1074
23 7 7 -0.5384 0.9363
23 8 -6 -0.5625 0.4350
23 8 -3 -6.0779 -2.2123
23 8 0 0.4338 2.7857
23 8 3 17.0434 -3.7803
23 8 6 -1.8717 1.4088
23 9 -7 4.5861 0.2617
23 9 -4 -8.9912 -3.2199
23 9 -1 4.9416 0.8292
23 9 2 -3.7919 0.3473
23 9 5 0.2167 -3.2869
23 9 8 -1.0601 -0.5458
23 10 -5 -1.4156 -0.0462
23 10 -2 4.4776 1.2574
23 10 1 9.5445 -2.1333
23 10 4 4.2822 1.6670
23 10 7 -8.0461 -2.3145
23 11 -6 8.1561 -1.3724
23 11 -3 -3.7099 3.2892
23 11 0 -5.5528 -3.7998
23 11 3 10.8135 2.1846
23 11 6 1.9384 -2.1779
23 12 -7 3.1058 -2.7141
23 12 -4 4.2244 -0.2000
23 12 -1 -0.5547 0.6329
23 12 2 8.6474 -0.9165
23 12 5 4.5844 -0.0069
23 13 -5 -2.7179 -0.4144
23 13 -2 1.5045 -0.4829
23 13 1 -0.3946 0.7093
23 13 4 -7.4067 -0.3394
23 13 7 -0.2285 -0.7010
23 14 -6 -5.6800 0.0080
23 14 -3 -1.4475 0.0774
23 14 0 8.1080 0.0924
23 14 3 -0.2219 -0.4336
23 14 6 1.4812 -0.0295
23 15 -4 -5.3381 -0.3145
23 15 -1 -1.3957 0.5333
23 15 2 -3.3635 -1.3681
23 15 5 8.7262 1.0698
23 16 -5 12.8356 -1.8263
23 16 -2 1.2337 -1.7318
23 16 1 -2.7228 1.1384
23 16 4 13.0845 -1.2954
23 17 -6 -0.3534 0.9088
23 17 -3 -7.0271 -0.7357
23 17 0 -5.3356 0.0552
23 17 3 1.7367 1.5673
23 17 6 0.5749 -1.5014
23 18 -4 -10.5805 1.8512
23 18 -1 1.1219 -2.2202
23 18 2 -1.0101 1.5573
23 18 5 -6.9014 -2.6700
23 19 -5 -5.1390 -0.9332
23 19 -2 2.9024 -0.4142
23 19 1 11.9543 -1.4289
23 19 4 0.2640 0.6220
23 20 -3 -0.2313 0.8785
23 20 0 4.1019 -1.0821
23 20 3 -13.4883 0.0584
23 21 -4 -1.9399 -2.0053
23 21 -1 -7.3161 0.2149
23 21 2 -8.8064 -0.8767
23 22 -2 -4.9508 -0.4512
23 22 1 -4.0216 1.1583
23 23 0 -4.2730 1.1940
23 24 -1 -5.5223 -1.0045
23 25 1 -8.1068 -0.9648
24 1 -7 -7.6191 7.5330
24 1 -4 -0.2551 -5.4502
24 1 -1 -4.1819 -4.2205
24 1 2 5.3842 13.1857
24 1 5 3.0784 -16.7586
24 1 8 -1.1547 13.2270
24 2 -8 -4.3785 2.0561
24 2 -5 6.8035 -2.7909
24 2 -2 -1.3785 -1.5896
24 2 1 4.4679 5.3799
24 2 4 -1.2552 -7.9015
24 2 7 5.0435 6.4596
24 3 -6 0.7760 -1.4694
24 3 -3 1.1050 0.2032
24 3 0 -2.2994 1.7482
24 3 3 -0.1405 -3.2708
24 3 6 -4.6508 2.8362
24 4 -7 4.9884 0.7123
24 4 -4 5.3963 -2.3457
24 4 -1 -5.8529 1.0288
24 4 2 0.1022 0.6919
24 4 5 2.6406 -1.3865
24 4 8 -15.0320 3.4827
24 5 -8 1.0954 -1.8169
24 5 -5 -0.4087 -0.9992
24 5 -2 -3.6419 3.8728
24 5 1 -5.0890 -5.1966
24 5 4 -11.0376 6.5932
24 5 7 1.6552 -2.9111
24 6 -6 0.5919 -4.4043
24 6 -3 -2.3107 4.2515
24 6 0 -8.2010 -2.9798
24 6 3 7.0685 0.9686
24 6 6 3.5895 2.7951
24 7 -7 3.0860 -0.8811
24 7 -4 5.1025 -0.8355
24 7 -1 -6.8456 1.7478
24 7 2 3.0519 -1.3623
24 7 5 -1.7195 1.3491
24 7 8 -9.4639 -3.2800
24 8 -8 8.8865 -4.3768
24 8 -5 -6.4486 -1.5525
24 8 -2 -4.9802 -0.2820
24 8 1 1.2194 0.3330
24 8 4 -4.8167 -1.4196
24 8 7 0.9646 0.3536
24 9 -6 -2.9130 -1.5348
24 9 -3 -8.8378 -0.2823
24 9 0 7.3324 1.0186
24 9 3 3.8633 -0.5286
24 9 6 2.4546 0.1695
24 10 -7 4.9472 1.8965
24 10 -4 11.9295 1.4117
24 10 -1 -7.0837 -0.1355
24 10 2 -0.6417 -0.8066
24 10 5 2.6115 1.5662
24 11 -5 2.3705 0.8882
24 11 -2 -0.1797 -0.8938
24 11 1 -4.2119 -0.4314
24 11 4 -10.1486 0.3907
24 11 7 2.5196 -1.3991
24 12 -6 2.1542 -1.3815
24 12 -3 -1.2811 0.0291
24 12 0 -1.3411 -0.5856
24 12 3 -3.4505 0.7908
24 12 6 7.0698 -1.0837
24 13 -7 -1.0322 -5.7662
24 13 -4 2.7374 -0.7026
24 13 -1 5.0816 -0.9016
24 13 2 -8.8407 1.9111
24 13 5 12.4152 -1.9568
24 14 -5 9.0177 -0.4139
24 14 -2 -0.7062 -0.0459
24 14 1 -12.4625 0.4879
24 14 4 -0.4742 -0.5433
24 15 -6 4.7850 0.3935
24 15 -3 -4.4458 -0.9854
24 15 0 7.5789 0.4471
24 15 3 -2.9475 0.0732
24 15 6 0.6726 4.4650
24 16 -4 4.1066 -0.5099
24 16 -1 -5.8167 -0.3236
24 16 2 -2.6456 1.5447
24 16 5 1.0248 0.8087
24 17 -5 7.7753 2.4589
24 17 -2 7.3164 1.2903
24 17 1 -8.8602 -0.4433
24 17 4 1.5191 0.8916
24 18 -3 -4.8445 -0.7953
24 18 0 5.4218 0.5404
24 18 3 -7.7762 0.1554
24 19 -4 -4.7860 -0.6175
24 19 -1 7.9957 -1.2273
24 19 2 -0.1837 2.0022
24 20 -2 0.5593 -0.6957
24 20 1 -2.8187 0.7775
24 20 4 13.4410 0.5916
24 21 -3 -7.4054 -0.6620
24 21 0 1.3622 -0.9911
24 21 3 -9.8280 -0.5337
24 22 -1 -4.3472 -2.0000
24 22 2 -15.6316 1.6309
24 23 1 -4.7178 0.1981
25 1 -6 -5.7323 0.9683
25 1 -3 11.8464 0.1239
25 1 0 8.1136 -1.3271
25 1 3 4.5957 1.3317
25 1 6 -9.3901 -2.5801
25 2 -7 -8.6229 6.4548
25 2 -4 -0.5615 -11.2440
25 2 -1 1.3840 14.8019
25 2 2 7.9009 -14.0108
25 2 5 -5.1311 8.8187
25 2 8 -9.8896 -1.6535
25 3 -8 -4.9108 8.1269
25 3 -5 7.3542 -4.7438
25 3 -2 -5.5292 3.4392
25 3 1 -1.5898 -1.4270
25 3 4 0.4034 -0.0368
25 3 7 -1.9439 1.3377
25 4 -6 1.5465 0.3006
25 4 -3 2.0039 -2.6609
25 4 0 -5.4404 2.3521
25 4 3 -4.7887 -0.9841
25 4 6 3.0218 0.1704
25 5 -7 1.1933 -5.3067
25 5 -4 -5.3606 8.4043
25 5 -1 -3.2226 -7.9831
25 5 2 -8.7713 5.5232
25 5 5 -5.4037 -2.3561
25 5 8 -7.0581 4.4277
25 6 -8 6.0259 0.3497
25 6 -5 -2.0790 1.3810
25 6 -2 3.6489 0.2127
25 6 1 -4.1099 -1.9909
25 6 4 -0.2487 2.5876
25 6 7 -0.9943 -0.9824
25 7 -6 4.5041 2.5096
25 7 -3 4.8092 -0.3378
25 7 0 -9.3293 -0.0886
25 7 3 4.0844 1.9891
25 7 6 -0.4437 -2.0297
25 8 -7 -8.7314 1.6290
25 8 -4 -5.9173 0.2119
25 8 -1 6.4978 -0.4105
25 8 2 -10.2839 -0.7142
25 8 5 -1.5049 1.9962
25 9 -5 -7.1024 -2.9949
25 9 -2 1.6438 4.5406
25 9 1 -1.6324 -4.1237
25 9 4 12.4132 2.5172
25 9 7 0.7383 1.6977
25 10 -6 -0.5334 -0.5381
25 10 -3 0.5704 2.1994
25 10 0 2.0711 -0.6440
25 10 3 -14.2824 -1.2448
25 10 6 0.5288 0.1615
25 11 -7 2.4845 -0.9833
25 11 -4 1.6190 -1.1068
25 11 -1 2.6243 0.1333
25 11 2 -2.8087 0.4350
25 11 5 8.6064 -0.9174
25 12 -5 2.7951 0.5719
25 12 -2 1.6745 -1.1954
25 12 1 2.5474 0.9262
25 12 4 3.7900 -1.1339
25 13 -6 0.5906 2.7029
25 13 -3 7.6507 -0.9261
25 13 0 1.1794 0.7632
25 13 3 7.0237 -0.6098
25 13 6 4.6171 -0.0465
25 14 -4 3.6257 0.0683
25 14 -1 -0.7546 -0.0167
25 14 2 -2.7560 0.0449
25 14 5 -15.3872 -2.2471
25 15 -5 12.9866 0.2368
25 15 -2 2.9720 -0.4829
25 15 1 0.4535 0.3575
25 15 4 -9.6344 -0.9297
25 16 -3 2.3160 1.2193
25 16 0 -1.0002 -0.2076
25 16 3 -4.3274 -1.5612
25 17 -4 -2.0824 1.6440
25 17 -1 0.0152 2.8313
25 17 2 0.1038 -2.9598
25 17 5 5.2937 1.5907
25 18 -5 -9.4016 0.0229
25 18 -2 -12.4007 0.8129
25 18 1 8.6244 1.7195
25 18 4 -0.9820 -2.1013
25 19 -3 6.2807 -3.0812
25 19 0 4.5674 2.9156
25 19 3 3.2549 -2.3433
25 20 -4 -1.7381 0.5163
25 20 -1 5.2497 1.4928
25 20 2 -1.7324 -0.1947
25 21 -2 -0.9008 -1.3991
25 21 1 3.7100 -0.1390
25 22 0 -5.4186 -1.4458
26 1 -8 -5.2454 3.0292
26 1 -5 -2.2404 -6.0174
26 1 -2 -7.1375 8.9575
26 1 1 -0.2433 -7.8450
26 1 4 4.4328 3.9511
26 1 7 -4.1408 0.0297
26 2 -6 -7.2018 -4.1746
26 2 -3 3.7841 1.6154
26 2 0 1.5962 4.5284
26 2 3 8.1377 -8.5834
26 2 6 -2.9128 10.8060
26 3 -7 8.9365 0.1993
26 3 -4 1.4591 -0.2080
26 3 -1 -5.7443 1.7130
26 3 2 -0.8705 -3.2186
26 3 5 -1.4005 3.6035
26 3 8 -12.8521 -2.7308
26 4 -8 -6.0328 -2.0933
26 4 -5 8.8423 -2.6421
26 4 -2 2.2671 2.1513
26 4 1 2.8797 -3.0913
26 4 4 -2.6903 1.7649
26 4 7 2.8848 -2.9934
26 5 -6 2.6066 3.1019
26 5 -3 -10.8289 -1.9495
26 5 0 0.0601 -1.3088
26 5 3 9.0488 3.8073
26 5 6 5.3380 -4.1184
26 6 -7 8.5495 1.8569
26 6 -4 8.1007 3.4526
26 6 -1 -1.4768 -5.5242
26 6 2 -17.0311 6.5526
26 6 5 1.2311 -4.3814
26 7 -5 -7.8300 3.6939
26 7 -2 -3.6809 -3.0659
26 7 1 -7.4480 3.0717
26 7 4 7.2072 -0.0320
26 7 7 -1.9841 1.7142
26 8 -6 -6.9205 -1.1965
26 8 -3 -3.6241 1.5577
26 8 0 5.0477 -2.2239
26 8 3 -0.3283 1.6314
26 8 6 15.1311 -0.1348
26 9 -7 6.1602 2.0003
26 9 -4 3.6622 -0.0573
26 9 -1 -2.5237 2.8210
26 9 2 -8.7371 -3.3943
26 9 5 12.0095 4.1755
26 10 -5 -4.5378 0.0886
26 10 -2 11.2264 0.3138
26 10 1 4.2021 0.1894
26 10 4 1.9788 0.1108
26 10 7 -2.4231 2.0461
26 11 -6 -3.3467 -1.6809
26 11 -3 7.5999 -0.8652
26 11 0 0.6018 1.2546
26 11 3 -2.5432 -0.1694
26 11 6 0.9257 0.6916
26 12 -4 13.0092 -1.4093
26 12 -1 -2.6226 0.7135
26 12 2 7.4565 0.8437
26 12 5 -6.0133 0.1245
26 13 -5 9.6236 2.8972
26 13 -2 1.2680 -0.7855
26 13 1 -6.5066 1.0620
26 13 4 8.0803 0.0947
26 14 -6 0.2585 7.3310
26 14 -3 2.4824 -1.1153
26 14 0 -2.4523 -0.0278
26 14 3 -0.0984 0.5189
26 15 -4 -2.2240 -0.0598
26 15 -1 -5.4190 0.7765
26 15 2 4.9967 -1.9930
26 15 5 -11.9959 1.3853
26 16 -5 7.8883 1.1567
26 16 -2 0.3269 0.5230
26 16 1 -2.4136 -0.7542
26 16 4 8.0424 1.4059
26 17 -3 -3.2971 2.0408
26 17 0 -3.2319 -0.0502
26 17 3 -1.9391 0.9074
26 18 -4 -10.7102 -4.0039
26 18 -1 -5.4580 1.8877
26 18 2 -2.3830 -0.8783
26 19 -2 2.9688 0.2870
26 19 1 3.5068 0.3493
26 20 -3 1.5330 2.3395
26 20 0 2.1558 -0.7810
26 20 3 14.0256 2.3011
26 21 -1 -10.9953 -4.3424
26 21 2 -5.3464 3.7861
26 22 1 7.3152 -0.8215
27 1 -7 1.6018 6.0176
27 1 -4 -2.7582 -9.1880
27 1 -1 -5.3169 8.1789
27 1 2 -2.2731 -3.0741
27 1 5 2.4208 -1.0645
27 1 8 -4.1584 4.6833
27 2 -8 8.0335 0.8700
27 2 -5 10.2795 -3.1206
27 2 -2 -2.1329 3.6134
27 2 1 6.9351 -2.6196
27 2 4 6.6566 1.4265
27 2 7 -7.7852 -1.9764
27 3 -6 1.3129 -5.4003
27 3 -3 0.0946 7.5559
27 3 0 1.7928 -8.5328
27 3 3 18.4531 3.9265
27 3 6 -2.3139 -1.8442
27 4 -7 -7.0118 -5.9377
27 4 -4 -0.9202 1.7908
27 4 -1 1.9420 -0.9499
27 4 2 4.1010 -1.7433
27 4 5 -4.5194 1.3124
27 5 -5 0.1989 5.3166
27 5 -2 -2.4846 -6.3112
27 5 1 3.8549 6.8745
27 5 4 5.5540 -5.4642
27 5 7 5.0741 1.7200
27 6 -6 0.0210 3.5114
27 6 -3 6.6061 -2.2641
27 6 0 5.0207 -0.2206
27 6 3 -4.9134 2.0745
27 6 6 2.3045 -3.2826
27 7 -7 -2.1304 -1.7727
27 7 -4 -0.0020 0.2048
27 7 -1 -2.2993 -0.4521
27 7 2 -10.6466 0.6071
27 7 5 -10.9116 -1.3077
27 8 -5 -8.4885 -2.2515
27 8 -2 -1.5707 0.7722
27 8 1 1.1588 -0.4409
27 8 4 2.8507 -1.0954
27 8 7 4.1486 -0.1690
27 9 -6 -7.5445 -0.5370
27 9 -3 2.2198 0.0123
27 9 0 -7.1542 0.1843
27 9 3 -9.5954 -0.0520
27 9 6 3.0214 0.3275
27 10 -4 1.3923 2.4274
27 10 -1 -2.6752 -2.8775
27 10 2 2.3898 2.1538
27 10 5 -3.9051 -2.0469
27 11 -5 5.3590 -2.0710
27 11 -2 -2.8302 0.1831
27 11 1 -3.6522 -0.6910
27 11 4 -5.2956 0.6060
27 12 -6 7.3755 0.3598
27 12 -3 1.4857 0.1996
27 12 0 4.8361 0.5521
27 12 3 6.2854 -0.4832
27 12 6 -6.8704 0.8434
27 13 -4 -0.3985 -0.0089
27 13 -1 -8.6910 0.1671
27 13 2 -0.7855 -0.6278
27 13 5 -6.2296 -1.5801
27 14 -5 6.1729 -1.3032
27 14 -2 -6.0013 0.9863
27 14 1 -3.1445 -1.5267
27 14 4 -1.4446 -1.0530
27 15 -3 -4.4541 1.4478
27 15 0 -6.3394 -0.9047
27 15 3 4.4896 -0.2678
27 16 -4 7.8148 -0.2636
27 16 -1 -7.8628 -1.4114
27 16 2 -0.9236 0.0178
27 17 -2 -4.6142 -2.3471
27 17 1 -2.7802 0.1254
27 17 4 -16.7833 -1.6266
27 18 -3 -3.5396 -3.7234
27 18 0 -4.2300 0.3660
27 18 3 -7.4305 -0.0614
27 19 -1 0.4301 1.0697
27 19 2 -5.2466 -0.5475
27 20 -2 4.2990 1.0685
27 20 1 3.3849 -2.1085
27 21 0 -13.6989 -2.4730
28 1 -6 1.1329 12.1852
28 1 -3 -6.8372 -17.5645
28 1 0 -6.6478 14.5550
28 1 3 3.1546 -7.1721
28 1 6 -4.7128 -0.9958
28 2 -7 6.5203 -1.4882
28 2 -4 3.5761 -0.4713
28 2 -1 -13.9099 0.0989
28 2 2 -5.4050 -0.2161
28 2 5 -2.1508 1.1059
28 2 8 -9.0456 -1.6266
28 3 -5 7.0938 -0.0178
28 3 -2 7.5033 2.5566
28 3 1 9.6816 -4.9471
28 3 4 -7.9010 4.5744
28 3 7 -2.8399 -3.3003
28 4 -6 3.7156 -1.6659
28 4 -3 10.3717 0.4387
28 4 0 -2.1663 -0.0334
28 4 3 -1.3792 0.8658
28 4 6 -2.3584 -1.5934
28 5 -7 -14.4190 4.4136
28 5 -4 5.6026 -2.0299
28 5 -1 4.9142 2.3139
28 5 2 -8.3829 -1.0220
28 5 5 -14.3418 0.2791
28 6 -5 -10.4178 -1.2324
28 6 -2 7.8493 -0.0194
28 6 1 5.7082 0.2688
28 6 4 -7.8075 -1.0683
28 6 7 5.9118 1.0019
28 7 -6 -2.0919 -2.3016
28 7 -3 2.7910 -2.5249
28 7 0 -1.7982 3.7708
28 7 3 3.2310 -4.8922
28 7 6 1.4587 4.5941
28 8 -4 6.9751 -3.0148
28 8 -1 -29.0499 1.3690
28 8 2 1.2023 -0.7616
28 8 5 3.7829 -0.7737
28 9 -5 -6.5701 1.3929
28 9 -2 -6.5922 -1.5426
28 9 1 0.3838 1.6528
28 9 4 -2.6775 -0.2399
28 10 -6 -3.8973 -1.4688
28 10 -3 -0.6643 0.2032
28 10 0 -0.7713 -1.9235
28 10 3 -4.5937 2.4524
28 10 6 12.2746 1.6996
28 11 -4 -5.4128 1.2728
28 11 -1 5.7349 -1.4567
28 11 2 4.0270 0.3668
28 11 5 0.9684 1.8300
28 12 -5 2.9167 1.1476
28 12 -2 -0.4205 1.1891
28 12 1 5.8846 -0.4380
28 12 4 4.6187 1.5150
28 13 -3 1.7650 1.0461
28 13 0 1.7127 -0.3237
28 13 3 5.7286 0.0260
28 14 -4 1.7509 -2.0531
28 14 -1 -9.3664 0.6057
28 14 2 -2.9959 0.1323
28 15 -2 13.4743 -0.1393
28 15 1 0.7120 0.3704
28 15 4 0.1970 0.7893
28 16 -3 8.6455 0.1624
28 16 0 -4.4473 -0.8832
28 16 3 -3.3449 1.0068
28 17 -1 -0.4487 -3.5820
28 17 2 2.4990 3.0224
28 18 -2 1.0850 -0.5269
28 18 1 -1.7010 0.3141
28 19 0 3.1683 -1.4814
28 20 -1 -1.0913 2.7008
29 1 -5 -0.1534 1.7990
29 1 -2 5.9105 -5.8589
29 1 1 -1.9788 7.4288
29 1 4 10.4545 -6.7644
29 1 7 -3.3140 5.1746
29 2 -6 -1.3884 -1.3443
29 2 -3 -0.2656 0.8421
29 2 0 6.2701 1.8257
29 2 3 10.3850 -3.7927
29 2 6 5.0279 5.1993
29 3 -7 8.7707 0.9138
29 3 -4 1.7287 1.5746
29 3 -1 1.3821 -2.3848
29 3 2 -10.1929 3.0098
29 3 5 -4.9718 -2.7100
29 4 -5 4.5323 2.0374
29 4 -2 5.5396 -2.6038
29 4 1 0.6724 3.8353
29 4 4 8.1594 -2.6926
29 4 7 -2.3720 1.1032
29 5 -6 -4.6490 2.5889
29 5 -3 6.4809 1.6893
29 5 0 1.5433 0.3424
29 5 3 3.4207 -1.0057
29 5 6 -12.5000 -1.9834
29 6 -4 -4.4878 -3.0308
29 6 -1 -2.6940 4.0368
29 6 2 -9.8421 -3.6235
29 6 5 -2.4143 2.0105
29 7 -5 4.8075 -1.4547
29 7 -2 -6.3534 1.2293
29 7 1 0.0524 1.2081
29 7 4 27.2146 -1.7615
29 8 -6 -0.1640 2.5350
29 8 -3 -0.5501 -1.0826
29 8 0 1.0854 1.0724
29 8 3 -0.7906 -1.4536
29 8 6 3.0132 2.5856
29 9 -4 0.3088 0.9802
29 9 -1 -6.8044 -0.5975
29 9 2 17.9707 -0.1467
29 9 5 -7.1863 -1.6235
29 10 -5 -2.1823 0.4533
29 10 -2 -8.6726 -1.0763
29 10 1 2.2644 0.1118
29 10 4 -11.6806 -0.2863
29 11 -3 5.7645 -0.6198
29 11 0 2.9892 0.2110
29 11 3 -1.1414 0.6042
29 12 -4 -1.4626 3.5337
29 12 -1 6.1237 0.4118
29 12 2 1.3862 0.0268
29 12 5 -17.0809 1.0327
29 13 -2 4.8254 2.3148
29 13 1 6.1622 -1.2190
29 13 4 5.8833 1.1293
29 14 -3 1.3678 -0.4561
29 14 0 -3.1937 0.7730
29 14 3 4.8989 -1.4463
29 15 -4 6.2747 0.8129
29 15 -1 -7.9937 0.8296
29 15 2 8.0635 0.0318
29 16 -2 -0.0413 -0.9684
29 16 1 8.4933 0.9823
29 17 -3 10.4337 0.5996
29 17 0 -8.2064 -0.1014
29 18 -1 -7.3307 2.6815
30 1 -7 -2.2403 3.1032
30 1 -4 -2.2767 -7.6179
30 1 -1 -0.7585 12.7718
30 1 2 2.6273 -16.1415
30 1 5 -2.9937 12.3189
30 2 -5 -1.9194 -8.2277
30 2 -2 -2.7634 10.6348
30 2 1 6.5623 -8.5566
30 2 4 -3.4376 3.3719
30 2 7 -4.9840 4.5234
30 3 -6 -1.2247 3.2802
30 3 -3 -3.6895 -0.9657
30 3 0 -14.4760 -0.3676
30 3 3 10.9834 1.9523
30 3 6 -3.1948 -0.9201
30 4 -7 -15.2950 3.9475
30 4 -4 0.0997 -0.5786
30 4 -1 -8.9147 0.7577
30 4 2 -7.5749 -0.1481
30 4 5 1.8751 -0.0481
30 5 -5 6.3444 1.0189
30 5 -2 -6.5502 0.1631
30 5 1 -1.5524 -0.3840
30 5 4 -2.3750 1.1363
30 6 -6 -6.2777 -3.3207
30 6 -3 12.2217 -0.8284
30 6 0 -1.2367 -0.2069
30 6 3 -11.4575 1.2088
30 6 6 -0.3197 0.6096
30 7 -4 -17.3173 -0.5278
30 7 -1 -13.7275 1.2488
30 7 2 0.9119 0.4403
30 7 5 -17.9638 -0.1146
30 8 -5 3.4955 1.7159
30 8 -2 3.6632 1.3738
30 8 1 7.6500 -3.5477
30 8 4 -26.8252 2.2388
30 9 -3 -2.8908 2.4645
30 9 0 0.1027 -1.9853
30 9 3 4.5824 0.0080
30 10 -4 -9.0171 0.2221
30 10 -1 -5.4125 -0.1508
30 10 2 4.1389 0.3184
30 10 5 -9.0538 -0.8205
30 11 -5 -1.4527 2.8942
30 11 -2 3.4360 -1.3745
30 11 1 5.1488 2.0978
30 11 4 -8.6347 -1.1568
30 12 -3 -13.1821 -0.6495
30 12 0 10.7564 0.6991
30 12 3 -4.0414 0.5766
30 13 -4 -5.7706 -2.4263
30 13 -1 -1.5363 0.0836
30 13 2 -7.9499 0.0956
30 14 -2 0.3045 -0.0462
30 14 1 3.3118 0.8729
30 15 -3 -6.5887 2.2927
30 15 0 -4.1200 -1.8949
30 15 3 -4.2693 2.4204
30 16 -1 1.5021 -3.1755
30 16 2 0.8356 2.3079
30 17 1 -4.1632 -1.7952
31 1 -6 7.4195 -7.7137
31 1 -3 1.1964 3.2563
31 1 0 2.3680 4.4980
31 1 3 2.5038 -11.2572
31 1 6 -0.9631 11.5728
31 2 -7 2.2667 -0.8786
31 2 -4 -2.8257 -0.0958
31 2 -1 -5.1895 4.2945
31 2 2 -16.7087 -7.6945
31 2 5 7.8834 6.9803
31 3 -5 -2.8649 -0.6000
31 3 -2 -7.8943 1.7592
31 3 1 4.3309 -3.9825
31 3 4 -3.0012 3.7015
31 3 7 -1.4108 -3.7640
31 4 -6 1.0508 -2.0451
31 4 -3 0.4854 2.1309
31 4 0 4.5274 -0.4632
31 4 3 -4.3338 -0.6425
31 4 6 -4.7433 -0.5406
31 5 -4 1.1287 0.6776
31 5 -1 -2.9206 -2.9994
31 5 2 8.0580 4.0820
31 5 5 -6.7651 -2.6781
31 6 -5 0.8353 0.4570
31 6 -2 -2.4597 -4.2813
31 6 1 1.0099 3.0011
31 6 4 -4.4361 -1.1048
31 7 -6 -13.9411 -0.2962
31 7 -3 4.3546 1.7955
31 7 0 -1.4252 -0.8368
31 7 3 -1.8787 0.8129
31 8 -4 -5.7381 0.6266
31 8 -1 7.4876 -0.4300
31 8 2 19.2126 -0.9593
31 8 5 -20.5130 0.7351
31 9 -5 15.0197 -0.9701
31 9 -2 -9.1151 1.9501
31 9 1 2.6747 -2.1322
31 9 4 1.0693 0.8721
31 10 -3 -1.9137 -0.7044
31 10 0 3.1420 1.0870
31 10 3 1.7340 -1.2090
31 11 -4 -0.8168 -2.4546
31 11 2 -3.4324 -1.0577
31 12 -2 1.6107 -2.2262
31 12 1 -0.9273 1.3848
31 12 4 10.8468 -3.8567
31 13 -3 -1.4326 -4.5694
31 13 0 -1.4036 1.1154
31 13 3 8.4907 -1.4748
31 14 -1 -5.6847 0.0531
31 14 2 0.6836 1.5416
31 15 -2 -5.5154 -0.0931
31 15 1 -0.7911 -2.0133
31 16 0 -3.3542 -3.0376
32 1 -5 -0.2095 -2.7613
32 1 -2 12.2069 1.3909
32 1 1 0.6124 -0.1623
32 1 4 -8.0016 -0.6626
32 1 7 2.2233 -0.6754
32 2 -6 0.1316 -8.1906
32 2 -3 6.2483 9.7646
32 2 0 -6.7619 -11.0082
32 2 3 -11.6790 7.9302
32 2 6 5.5707 -2.3505
32 3 -4 -6.1530 3.2480
32 3 -1 3.8874 -2.5757
32 3 2 -2.6867 -0.1500
32 3 5 -2.7832 4.6431
32 4 -5 -1.5841 -3.4226
32 4 -2 -5.2141 2.1925
32 4 1 4.7490 -2.8360
32 4 4 13.6319 2.1693
32 5 -6 -11.4122 1.1857
32 5 -3 -3.7003 -4.4386
32 5 0 0.3787 3.3461
32 5 3 13.1705 -2.4057
32 6 -4 0.9878 -0.1137
32 6 -1 -7.2010 -2.3364
32 6 2 7.2108 2.3314
32 6 5 5.9957 -1.7315
32 7 -5 6.5604 1.4978
32 7 -2 6.4878 2.5261
32 7 1 0.8178 -1.8980
32 7 4 -0.1034 2.2127
32 8 -3 -1.1460 0.2506
32 8 0 -6.4553 -1.7540
32 8 3 -30.6760 2.4626
32 9 -4 -5.4336 0.2204
32 9 -1 4.3240 -1.8825
32 9 2 -18.7628 1.3063
32 10 -2 4.3731 -1.2470
32 10 1 -3.9339 1.2845
32 10 4 5.0740 0.6726
32 11 -3 -8.1443 -0.2800
32 11 0 3.3521 1.5022
32 11 3 4.4102 -1.4845
32 12 -1 -5.2097 0.4060
32 12 2 -1.4496 -0.1834
32 13 -2 3.3819 -1.4502
32 13 1 -1.2252 0.5791
32 14 0 0.9053 -0.5802
32 15 -1 4.4828 1.0248
33 1 -4 -2.1464 5.5693
33 1 -1 -0.6795 -7.0669
33 1 2 8.2103 6.6745
33 1 5 10.1123 -4.6376
33 2 -5 -1.4416 4.2630
33 2 -2 0.7183 -1.4811
33 2 1 0.2192 -2.5654
33 2 4 -5.6200 6.6651
33 3 -6 -0.6786 -0.0757
33 3 -3 -1.9412 0.6485
33 3 0 -1.8034 -2.7513
33 3 3 0.1130 2.9258
33 3 6 -0.2939 -0.3992
33 4 -4 8.4037 2.3824
33 4 -1 -6.5795 -3.0908
33 4 2 -5.0167 2.6805
33 4 5 0.8028 -4.5579
33 5 -5 -1.2161 -1.2594
33 5 -2 -15.9180 -0.3380
33 5 1 -11.4291 1.7606
33 5 4 8.4623 -3.6657
33 6 -3 -4.3257 -0.3662
33 6 0 0.1297 2.4288
33 6 3 -13.6425 -2.2012
33 7 -4 4.3239 0.6334
33 7 -1 5.1901 3.3036
33 7 2 5.2292 -3.8424
33 8 -2 -7.2740 -0.3546
33 8 1 -3.3622 0.1144
33 8 4 6.1890 -0.8293
33 9 -3 1.4505 2.0888
33 9 0 4.6992 -1.6461
33 9 3 -6.7982 1.4519
33 10 -4 -5.9723 -0.9101
33 10 -1 1.7018 0.5767
33 10 2 -13.2952 0.1432
33 11 -2 1.0323 0.0073
33 11 1 -6.1407 0.0455
33 12 0 9.5725 0.0397
33 12 3 7.8709 1.3728
33 13 -1 0.6167 2.8973
33 13 2 3.9735 -5.4252
33 14 1 0.6632 -5.5199
34 1 -6 -7.8915 -4.0989
34 1 -3 -2.1101 2.5544
34 1 0 -8.2974 -3.5553
34 1 3 2.1792 1.4044
34 1 6 -0.9860 2.0062
34 2 -4 -6.0582 2.3712
34 2 -1 6.2223 -4.3618
34 2 2 -5.1055 4.8109
34 3 -5 2.2662 8.0872
34 3 -2 6.1038 -7.1507
34 3 1 -8.5413 6.8411
34 3 4 -2.2072 -4.0407
34 4 -3 0.7065 -0.2878
34 4 0 3.8554 -1.1895
34 4 3 -10.0718 4.1924
34 5 -4 -0.7690 -1.1317
34 5 -1 -3.8024 4.3641
34 5 2 15.1582 -2.8525
34 6 -2 -9.2896 3.4397
34 6 1 3.0766 -0.5628
34 6 4 4.4497 0.5331
34 7 -3 -0.9710 -0.6387
34 7 0 -1.6474 1.5926
34 7 3 10.8221 -2.0441
34 8 -4 -11.4804 -1.5085
34 8 -1 0.5405 -0.3773
34 8 2 11.9514 0.2094
34 9 -2 3.3749 -0.0991
34 9 1 6.3227 1.5835
34 10 -3 -0.6295 1.6379
34 10 0 3.8482 -1.1821
34 11 -1 -3.6169 -4.6214
34 11 2 -6.6286 4.1855
34 12 1 0.6885 -5.2638
35 1 -5 1.6265 -9.1974
35 1 -2 23.1778 10.0941
35 1 1 3.1275 -8.7561
35 1 4 7.2082 -0.1665
35 2 -3 -8.3436 -3.0224
35 2 0 3.9258 1.3597
35 2 3 0.4974 -1.4300
35 3 -4 17.8893 1.6445
35 3 -1 -0.6347 -3.0092
35 3 2 -1.3924 3.8691
35 4 -2 1.9239 -2.3974
35 4 1 -1.9544 1.1462
35 4 4 19.3722 -0.3116
35 5 -3 6.3784 1.2728
35 5 0 -2.9509 -0.1495
35 5 3 14.6719 -2.3413
35 6 -4 12.0344 -0.7686
35 6 -1 1.7241 0.3414
35 6 2 3.7035 -0.2671
35 7 -2 -12.1231 -1.1588
35 7 1 -4.4229 0.2395
35 8 -3 5.5408 -5.2973
35 8 0 -1.2053 0.6719
35 9 -1 -6.8957 -0.2922
35 10 -2 -0.3890 -2.1925
36 1 -4 1.9967 -3.8197
36 1 -1 4.1707 6.8950
36 1 2 16.1638 -7.4984
36 2 -2 -2.2529 2.2725
36 2 1 -15.8550 -3.8759
36 2 4 14.4698 5.6035
36 3 -3 -16.3977 -0.6415
36 3 0 2.3771 1.8087
36 3 3 6.2804 -1.3621
36 4 -4 2.4382 -4.3194
36 4 -1 2.7443 3.7494
36 4 2 0.7627 -5.5897
36 5 -2 -4.4832 1.2930
36 5 1 -1.2143 0.4508
36 6 -3 -3.6002 -0.0445
36 6 0 -5.6977 -1.3494
36 6 3 5.4283 1.8284
36 7 -1 -4.8955 -1.7454
36 7 2 -8.5080 2.8677
36 8 -2 -3.0949 -1.9119
36 8 1 3.6053 -0.0098
36 9 0 12.3940 -1.3481
37 1 -3 -13.2212 8.2357
37 1 0 4.9965 -9.5987
37 1 3 -2.0633 9.8541
37 2 -4 3.7176 8.6373
37 2 -1 4.4912 -3.9810
37 2 2 -0.6598 0.9645
37 3 -2 -5.2047 2.3486
37 3 1 -3.4847 -0.9285
37 4 -3 -2.4243 -2.7763
37 4 0 -0.9595 4.1331
37 4 3 6.9897 -3.9465
37 5 -1 1.8542 0.9077
37 5 2 13.0048 1.2116
37 6 -2 -4.3630 -3.7383
37 6 1 5.4864 1.2940
37 7 0 5.3872 -1.2429
37 8 -1 -2.7566 0.8745
38 1 -2 4.5899 1.0617
38 1 1 -2.1356 -5.4854
38 2 -3 -14.2234 5.5111
38 2 0 9.3547 -7.1322
38 2 3 -7.2965 5.1973
38 3 -1 -4.2549 -2.0572
38 3 2 -8.1704 3.6319
38 4 -2 4.4600 -1.7497
38 4 1 2.1607 1.8317
38 5 0 3.8444 -0.2344
38 6 -1 -1.0913 -2.5542
39 1 -1 -2.2689 -0.2996
39 1 2 -3.5851 -0.8237
39 2 -2 11.1041 -8.1453
39 2 1 -8.8062 6.3725
39 3 0 -1.1788 1.1069
39 4 -1 2.8412 -2.6827
39 4 2 -1.4386 2.4139
39 5 1 -10.3849 -5.0252
40 1 0 6.3178 2.6896
40 2 2 -7.9243 5.1172
40 3 1 -4.4726 4.1452
0 0 0 0.0 0.0
;
_shelx_fab_checksum              79013
_olex2_submission_special_instructions 'No special instructions were received'
_oxdiff_exptl_absorpt_empirical_details
;
Empirical correction (ABSPACK) includes:
- Absorption correction using spherical harmonics
- Frame scaling
;
loop_
_space_group_symop_operation_xyz
'x, y, z'
'-y, x-y, z'
'-x+y, -x, z'
'x+2/3, y+1/3, z+1/3'
'-y+2/3, x-y+1/3, z+1/3'
'-x+y+2/3, -x+1/3, z+1/3'
'x+1/3, y+2/3, z+2/3'
'-y+1/3, x-y+2/3, z+2/3'
'-x+y+1/3, -x+2/3, z+2/3'
'-x, -y, -z'
'y, -x+y, -z'
'x-y, x, -z'
'-x+2/3, -y+1/3, -z+1/3'
'y+2/3, -x+y+1/3, -z+1/3'
'x-y+2/3, x+1/3, -z+1/3'
'-x+1/3, -y+2/3, -z+2/3'
'y+1/3, -x+y+2/3, -z+2/3'
'x-y+1/3, x+2/3, -z+2/3'
loop_
_atom_site_label
_atom_site_type_symbol
_atom_site_fract_x
_atom_site_fract_y
_atom_site_fract_z
_atom_site_U_iso_or_equiv
_atom_site_adp_type
_atom_site_occupancy
_atom_site_site_symmetry_order
_atom_site_calc_flag
_atom_site_refinement_flags_posn
_atom_site_refinement_flags_adp
_atom_site_refinement_flags_occupancy
_atom_site_disorder_assembly
_atom_site_disorder_group
Co1 Co 0.47751(2) 0.37812(2) 0.18986(6) 0.0438(2) Uani 1 1 d . . . . .
O1 O 0.46300(7) 0.35179(7) 0.3677(2) 0.0490(7) Uani 1 1 d . . . . .
O2 O 0.42006(7) 0.18076(7) 0.6797(3) 0.0525(7) Uani 1 1 d . . . . .
O3 O 0.44856(7) 0.19613(7) 0.4749(3) 0.0516(7) Uani 1 1 d . . . . .
N1 N 0.43599(8) 0.30410(8) 0.8587(3) 0.0428(8) Uani 1 1 d . . . . .
O4 O 0.48423(8) 0.31907(8) 0.2618(3) 0.0596(8) Uani 1 1 d . . . . .
N2 N 0.45233(9) 0.34226(8) 1.0342(3) 0.0451(8) Uani 1 1 d . . . . .
N3 N 0.41399(8) 0.32159(9) 1.0344(3) 0.0473(8) Uani 1 1 d . . . . .
N4 N 0.29017(9) 0.22142(9) 0.8715(3) 0.0482(8) Uani 1 1 d . . . . .
C1 C 0.44002(9) 0.28916(10) 0.7289(4) 0.0393(9) Uani 1 1 d . . . . .
C2 C 0.45029(10) 0.31171(10) 0.6127(4) 0.0445(9) Uani 1 1 d . . . . .
H2 H 0.452376 0.335338 0.618468 0.053 Uiso 1 1 calc R U . . .
C3 C 0.46449(10) 0.33113(10) 0.9297(4) 0.0440(9) Uani 1 1 d . . . . .
C4 C 0.45752(10) 0.29991(10) 0.4880(4) 0.0430(9) Uani 1 1 d . . . . .
C5 C 0.44213(10) 0.24217(10) 0.5961(4) 0.0407(9) Uani 1 1 d . . . . .
C6 C 0.40491(11) 0.29869(11) 0.9282(4) 0.0462(10) Uani 1 1 d . . . . .
C7 C 0.43554(10) 0.25414(10) 0.7217(4) 0.0433(9) Uani 1 1 d . . . . .
H7 H 0.428070 0.238604 0.801465 0.052 Uiso 1 1 calc R U . . .
C8 C 0.45395(10) 0.26526(10) 0.4809(4) 0.0423(9) Uani 1 1 d . . . . .
H8 H 0.459629 0.257249 0.396569 0.051 Uiso 1 1 calc R U . . .
C9 C 0.46942(10) 0.32482(11) 0.3614(4) 0.0455(10) Uani 1 1 d . . . . .
C10 C 0.43622(11) 0.20321(11) 0.5847(4) 0.0444(9) Uani 1 1 d . . . . .
C11 C 0.36591(11) 0.27122(11) 0.9004(4) 0.0460(10) Uani 1 1 d . . . . .
C12 C 0.35213(12) 0.25072(12) 0.7846(4) 0.0624(12) Uani 1 1 d . . . . .
H12 H 0.368134 0.253155 0.710007 0.075 Uiso 1 1 calc R U . . .
C13 C 0.31421(12) 0.22576(12) 0.7736(4) 0.0600(12) Uani 1 1 d . . . . .
H13 H 0.305339 0.211204 0.691544 0.072 Uiso 1 1 calc R U . . .
C14 C 0.50437(11) 0.34581(12) 0.8968(4) 0.0619(12) Uani 1 1 d . . . . .
H14A H 0.507689 0.325972 0.858284 0.093 Uiso 1 1 calc R U . . .
H14B H 0.519005 0.355277 0.982244 0.093 Uiso 1 1 calc R U . . .
H14C H 0.512550 0.365777 0.828403 0.093 Uiso 1 1 calc R U . . .
C15 C 0.34128(12) 0.26665(14) 1.0042(5) 0.0848(17) Uani 1 1 d . . . . .
H15 H 0.349719 0.280504 1.088085 0.102 Uiso 1 1 calc R U . . .
C16 C 0.30433(13) 0.24186(14) 0.9857(5) 0.0848(16) Uani 1 1 d . . . . .
H16 H 0.287892 0.239162 1.059029 0.102 Uiso 1 1 calc R U . . .
loop_
_atom_site_aniso_label
_atom_site_aniso_U_11
_atom_site_aniso_U_22
_atom_site_aniso_U_33
_atom_site_aniso_U_23
_atom_site_aniso_U_13
_atom_site_aniso_U_12
Co1 0.0433(4) 0.0427(4) 0.0439(4) 0.0001(3) 0.0012(3) 0.0203(3)
O1 0.0528(17) 0.0376(16) 0.0556(16) 0.0062(12) 0.0022(13) 0.0218(14)
O2 0.0570(18) 0.0407(16) 0.0593(17) 0.0041(13) 0.0006(14) 0.0241(14)
O3 0.0552(18) 0.0492(17) 0.0563(17) -0.0042(13) 0.0031(13) 0.0305(14)
N1 0.046(2) 0.0422(19) 0.0399(18) -0.0043(14) 0.0011(15) 0.0222(17)
O4 0.069(2) 0.068(2) 0.0518(17) 0.0098(14) 0.0129(14) 0.0421(17)
N2 0.043(2) 0.0420(19) 0.0461(19) 0.0014(15) 0.0022(15) 0.0183(17)
N3 0.043(2) 0.051(2) 0.0437(19) -0.0040(15) 0.0014(15) 0.0209(18)
N4 0.051(2) 0.052(2) 0.0405(18) -0.0020(15) 0.0024(16) 0.0247(17)
C1 0.037(2) 0.039(2) 0.043(2) 0.0000(17) -0.0012(17) 0.0187(18)
C2 0.046(2) 0.041(2) 0.049(2) 0.0018(18) 0.0016(18) 0.023(2)
C3 0.043(2) 0.044(2) 0.043(2) -0.0019(18) -0.0016(18) 0.020(2)
C4 0.044(2) 0.042(2) 0.045(2) 0.0018(17) 0.0026(17) 0.0228(19)
C5 0.039(2) 0.035(2) 0.047(2) -0.0013(17) 0.0009(17) 0.0171(18)
C6 0.059(3) 0.049(2) 0.031(2) 0.0014(18) -0.0011(18) 0.027(2)
C7 0.045(2) 0.041(2) 0.043(2) 0.0032(17) 0.0022(17) 0.021(2)
C8 0.038(2) 0.045(2) 0.046(2) -0.0012(18) 0.0020(17) 0.0231(19)
C9 0.043(2) 0.051(3) 0.045(2) 0.0039(19) 0.0001(18) 0.025(2)
C10 0.045(2) 0.044(2) 0.050(2) 0.001(2) -0.0090(19) 0.026(2)
C11 0.044(2) 0.047(2) 0.041(2) -0.0064(18) 0.0008(18) 0.018(2)
C12 0.046(3) 0.072(3) 0.056(3) -0.014(2) 0.006(2) 0.021(2)
C13 0.056(3) 0.058(3) 0.056(3) -0.021(2) -0.006(2) 0.021(2)
C14 0.046(3) 0.066(3) 0.070(3) -0.012(2) 0.006(2) 0.026(2)
C15 0.045(3) 0.098(4) 0.081(3) -0.051(3) -0.011(2) 0.013(3)
C16 0.054(3) 0.100(4) 0.075(3) -0.038(3) 0.005(2) 0.019(3)
loop_
_atom_type_symbol
_atom_type_description
_atom_type_scat_dispersion_real
_atom_type_scat_dispersion_imag
_atom_type_scat_source
C C 0.0181 0.0091 'International Tables Vol C Tables 4.2.6.8 and 6.1.1.4'
Co Co -2.3653 3.6143 'International Tables Vol C Tables 4.2.6.8 and 6.1.1.4'
H H 0.0000 0.0000 'International Tables Vol C Tables 4.2.6.8 and 6.1.1.4'
N N 0.0311 0.0180 'International Tables Vol C Tables 4.2.6.8 and 6.1.1.4'
O O 0.0492 0.0322 'International Tables Vol C Tables 4.2.6.8 and 6.1.1.4'
loop_
_geom_angle_atom_site_label_1
_geom_angle_atom_site_label_2
_geom_angle_atom_site_label_3
_geom_angle
_geom_angle_site_symmetry_1
_geom_angle_site_symmetry_3
_geom_angle_publ_flag
O1 Co1 N2 109.19(11) . 1_554 ?
O1 Co1 N4 96.89(11) . 5_554 ?
O3 Co1 O1 110.13(11) 17 . ?
O3 Co1 N2 123.97(12) 17 1_554 ?
O3 Co1 N4 112.07(12) 17 5_554 ?
N2 Co1 N4 100.96(13) 1_554 5_554 ?
C9 O1 Co1 108.2(2) . . ?
C10 O3 Co1 107.7(2) . 18_545 ?
C3 N1 C1 123.7(3) . . ?
C3 N1 C6 105.1(3) . . ?
C6 N1 C1 130.8(3) . . ?
N3 N2 Co1 118.5(2) . 1_556 ?
C3 N2 Co1 133.2(3) . 1_556 ?
C3 N2 N3 108.2(3) . . ?
C6 N3 N2 106.0(3) . . ?
C13 N4 Co1 125.9(3) . 9 ?
C13 N4 C16 115.6(4) . . ?
C16 N4 Co1 118.4(3) . 9 ?
C2 C1 N1 117.6(3) . . ?
C2 C1 C7 121.0(3) . . ?
C7 C1 N1 121.3(3) . . ?
C1 C2 H2 119.9 . . ?
C1 C2 C4 120.1(3) . . ?
C4 C2 H2 119.9 . . ?
N1 C3 C14 125.1(3) . . ?
N2 C3 N1 110.3(3) . . ?
N2 C3 C14 124.6(3) . . ?
C2 C4 C9 120.2(3) . . ?
C8 C4 C2 119.2(3) . . ?
C8 C4 C9 120.6(3) . . ?
C7 C5 C8 120.5(3) . . ?
C7 C5 C10 119.6(3) . . ?
C8 C5 C10 119.9(3) . . ?
N1 C6 C11 128.8(3) . . ?
N3 C6 N1 110.5(3) . . ?
N3 C6 C11 120.7(3) . . ?
C1 C7 C5 118.8(3) . . ?
C1 C7 H7 120.6 . . ?
C5 C7 H7 120.6 . . ?
C4 C8 C5 120.4(3) . . ?
C4 C8 H8 119.8 . . ?
C5 C8 H8 119.8 . . ?
O1 C9 C4 115.2(3) . . ?
O4 C9 O1 123.8(3) . . ?
O4 C9 C4 121.0(4) . . ?
O2 C10 O3 124.3(3) . . ?
O2 C10 C5 119.5(3) . . ?
O3 C10 C5 116.2(3) . . ?
C12 C11 C6 126.9(4) . . ?
C12 C11 C15 117.2(4) . . ?
C15 C11 C6 115.9(3) . . ?
C11 C12 H12 119.9 . . ?
C11 C12 C13 120.2(4) . . ?
C13 C12 H12 119.9 . . ?
N4 C13 C12 123.4(4) . . ?
N4 C13 H13 118.3 . . ?
C12 C13 H13 118.3 . . ?
C3 C14 H14A 109.5 . . ?
C3 C14 H14B 109.5 . . ?
C3 C14 H14C 109.5 . . ?
H14A C14 H14B 109.5 . . ?
H14A C14 H14C 109.5 . . ?
H14B C14 H14C 109.5 . . ?
C11 C15 H15 120.2 . . ?
C11 C15 C16 119.5(4) . . ?
C16 C15 H15 120.2 . . ?
N4 C16 C15 124.1(4) . . ?
N4 C16 H16 117.9 . . ?
C15 C16 H16 117.9 . . ?
loop_
_geom_bond_atom_site_label_1
_geom_bond_atom_site_label_2
_geom_bond_distance
_geom_bond_site_symmetry_2
_geom_bond_publ_flag
Co1 O1 1.955(2) . ?
Co1 O3 1.931(3) 17 ?
Co1 N2 2.002(3) 1_554 ?
Co1 N4 2.051(3) 5_554 ?
O1 C9 1.286(4) . ?
O2 C10 1.239(4) . ?
O3 C10 1.271(4) . ?
N1 C1 1.440(4) . ?
N1 C3 1.348(4) . ?
N1 C6 1.376(5) . ?
O4 C9 1.226(4) . ?
N2 N3 1.391(4) . ?
N2 C3 1.311(4) . ?
N3 C6 1.318(4) . ?
N4 C13 1.320(5) . ?
N4 C16 1.333(5) . ?
C1 C2 1.383(5) . ?
C1 C7 1.383(5) . ?
C2 H2 0.9500 . ?
C2 C4 1.384(5) . ?
C3 C14 1.496(5) . ?
C4 C8 1.384(5) . ?
C4 C9 1.513(5) . ?
C5 C7 1.384(5) . ?
C5 C8 1.386(5) . ?
C5 C10 1.526(5) . ?
C6 C11 1.477(5) . ?
C7 H7 0.9500 . ?
C8 H8 0.9500 . ?
C11 C12 1.344(5) . ?
C11 C15 1.376(5) . ?
C12 H12 0.9500 . ?
C12 C13 1.402(5) . ?
C13 H13 0.9500 . ?
C14 H14A 0.9800 . ?
C14 H14B 0.9800 . ?
C14 H14C 0.9800 . ?
C15 H15 0.9500 . ?
C15 C16 1.377(6) . ?
C16 H16 0.9500 . ?
loop_
_geom_torsion_atom_site_label_1
_geom_torsion_atom_site_label_2
_geom_torsion_atom_site_label_3
_geom_torsion_atom_site_label_4
_geom_torsion
_geom_torsion_site_symmetry_1
_geom_torsion_site_symmetry_2
_geom_torsion_site_symmetry_3
_geom_torsion_site_symmetry_4
_geom_torsion_publ_flag
Co1 O1 C9 O4 4.0(4) . . . . ?
Co1 O1 C9 C4 -176.3(2) . . . . ?
Co1 O3 C10 O2 6.2(4) 18_545 . . . ?
Co1 O3 C10 C5 -173.6(2) 18_545 . . . ?
Co1 N2 N3 C6 -175.5(2) 1_556 . . . ?
Co1 N2 C3 N1 175.2(2) 1_556 . . . ?
Co1 N2 C3 C14 -3.4(6) 1_556 . . . ?
Co1 N4 C13 C12 174.0(3) 9 . . . ?
Co1 N4 C16 C15 -175.0(5) 9 . . . ?
N1 C1 C2 C4 174.7(3) . . . . ?
N1 C1 C7 C5 -175.8(3) . . . . ?
N1 C6 C11 C12 -14.6(7) . . . . ?
N1 C6 C11 C15 166.1(4) . . . . ?
N2 N3 C6 N1 -0.6(4) . . . . ?
N2 N3 C6 C11 177.4(3) . . . . ?
N3 N2 C3 N1 0.6(4) . . . . ?
N3 N2 C3 C14 -178.0(3) . . . . ?
N3 C6 C11 C12 167.8(4) . . . . ?
N3 C6 C11 C15 -11.5(6) . . . . ?
C1 N1 C3 N2 172.3(3) . . . . ?
C1 N1 C3 C14 -9.2(6) . . . . ?
C1 N1 C6 N3 -171.6(3) . . . . ?
C1 N1 C6 C11 10.6(6) . . . . ?
C1 C2 C4 C8 0.7(5) . . . . ?
C1 C2 C4 C9 -178.9(3) . . . . ?
C2 C1 C7 C5 1.1(5) . . . . ?
C2 C4 C8 C5 2.0(5) . . . . ?
C2 C4 C9 O1 -17.2(5) . . . . ?
C2 C4 C9 O4 162.5(4) . . . . ?
C3 N1 C1 C2 -68.9(5) . . . . ?
C3 N1 C1 C7 108.1(4) . . . . ?
C3 N1 C6 N3 0.9(4) . . . . ?
C3 N1 C6 C11 -176.9(4) . . . . ?
C3 N2 N3 C6 0.0(4) . . . . ?
C6 N1 C1 C2 102.5(4) . . . . ?
C6 N1 C1 C7 -80.6(5) . . . . ?
C6 N1 C3 N2 -0.9(4) . . . . ?
C6 N1 C3 C14 177.6(4) . . . . ?
C6 C11 C12 C13 -179.8(4) . . . . ?
C6 C11 C15 C16 179.3(5) . . . . ?
C7 C1 C2 C4 -2.3(5) . . . . ?
C7 C5 C8 C4 -3.3(5) . . . . ?
C7 C5 C10 O2 11.6(5) . . . . ?
C7 C5 C10 O3 -168.6(3) . . . . ?
C8 C4 C9 O1 163.2(3) . . . . ?
C8 C4 C9 O4 -17.1(5) . . . . ?
C8 C5 C7 C1 1.7(5) . . . . ?
C8 C5 C10 O2 -168.2(3) . . . . ?
C8 C5 C10 O3 11.6(5) . . . . ?
C9 C4 C8 C5 -178.4(3) . . . . ?
C10 C5 C7 C1 -178.1(3) . . . . ?
C10 C5 C8 C4 176.6(3) . . . . ?
C11 C12 C13 N4 1.5(7) . . . . ?
C11 C15 C16 N4 -0.2(9) . . . . ?
C12 C11 C15 C16 -0.1(8) . . . . ?
C13 N4 C16 C15 1.0(8) . . . . ?
C15 C11 C12 C13 -0.5(7) . . . . ?
C16 N4 C13 C12 -1.7(6) . . . . ?
loop_
_smtbx_masks_void_nr
_smtbx_masks_void_average_x
_smtbx_masks_void_average_y
_smtbx_masks_void_average_z
_smtbx_masks_void_volume
_smtbx_masks_void_count_electrons
_smtbx_masks_void_content
1 -0.765 -0.395 -0.085 9168.2 353.3 '3.6 C4H9NO,10.8 C2H6O'
