#------------------------------------------------------------------------------
#$Date: 2022-12-24 01:53:24 +0200 (Sat, 24 Dec 2022) $
#$Revision: 280023 $
#$URL: file:///home/coder/svn-repositories/cod/cif/7/71/20/7712002.cif $
#------------------------------------------------------------------------------
#
# This file is available in the Crystallography Open Database (COD),
# http://www.crystallography.net/
#
# All data on this site have been placed in the public domain by the
# contributors.
#
data_7712002
loop_
_publ_author_name
'Jiang, Wei'
'Gao, Baihui'
'Yan, Guosong'
'Xu, Shichong'
'Chu, Xianyu'
'Che, Guangbo'
'Liu, Bo'
'Lu, Ming'
'Liu, Chunbo'
_publ_section_title
;
 Ferric ion substitution renders cadmium metal-organic framework
 derivatives for modulated Li storage based on local oxidation active
 centers.
;
_journal_name_full
'Dalton transactions (Cambridge, England : 2003)'
_journal_paper_doi               10.1039/d2dt03392e
_journal_year                    2022
_chemical_formula_moiety         'C47 H52 Cd N3 O16'
_chemical_formula_sum            'C47 H52 Cd N3 O16'
_chemical_formula_weight         1119.4975
_space_group_crystal_system      monoclinic
_space_group_IT_number           14
_space_group_name_Hall           '-P 2yn'
_space_group_name_H-M_alt        'P 1 21/n 1'
_atom_sites_solution_hydrogens   geom
_audit_creation_method           SHELXL-2014/7
_audit_update_record
;
2022-02-09 deposited with the CCDC.	2022-12-23 downloaded from the CCDC.
;
_cell_angle_alpha                90
_cell_angle_beta                 105.015(4)
_cell_angle_gamma                90
_cell_formula_units_Z            4
_cell_length_a                   21.479(4)
_cell_length_b                   7.9353(16)
_cell_length_c                   32.660(6)
_cell_measurement_reflns_used    257
_cell_measurement_temperature    296(2)
_cell_measurement_theta_max      33
_cell_measurement_theta_min      16
_cell_volume                     5376.6(18)
_computing_structure_refinement  'SHELXL-2014/7 (Sheldrick, 2014)'
_diffrn_ambient_temperature      296(2)
_diffrn_measured_fraction_theta_full 1.000
_diffrn_measured_fraction_theta_max 0.994
_diffrn_measurement_device_type  multi-scan
_diffrn_measurement_method       'w scans'
_diffrn_radiation_type           MoK\a
_diffrn_radiation_wavelength     0.71073
_diffrn_reflns_av_R_equivalents  0.0932
_diffrn_reflns_av_unetI/netI     0.1152
_diffrn_reflns_Laue_measured_fraction_full 1.000
_diffrn_reflns_Laue_measured_fraction_max 0.994
_diffrn_reflns_limit_h_max       14
_diffrn_reflns_limit_h_min       -27
_diffrn_reflns_limit_k_max       10
_diffrn_reflns_limit_k_min       -10
_diffrn_reflns_limit_l_max       41
_diffrn_reflns_limit_l_min       -39
_diffrn_reflns_number            35352
_diffrn_reflns_point_group_measured_fraction_full 1.000
_diffrn_reflns_point_group_measured_fraction_max 0.994
_diffrn_reflns_theta_full        25.000
_diffrn_reflns_theta_max         27.194
_diffrn_reflns_theta_min         1.026
_exptl_absorpt_coefficient_mu    0.467
_exptl_absorpt_correction_type   none
_exptl_crystal_colour            colorless
_exptl_crystal_density_diffrn    1.215
_exptl_crystal_description       block
_exptl_crystal_F_000             1984
_refine_diff_density_max         0.502
_refine_diff_density_min         -0.526
_refine_diff_density_rms         0.076
_refine_ls_extinction_method     none
_refine_ls_goodness_of_fit_ref   0.938
_refine_ls_hydrogen_treatment    constr
_refine_ls_matrix_type           full
_refine_ls_number_parameters     481
_refine_ls_number_reflns         11906
_refine_ls_number_restraints     2
_refine_ls_restrained_S_all      0.942
_refine_ls_R_factor_all          0.1230
_refine_ls_R_factor_gt           0.0583
_refine_ls_shift/su_max          0.000
_refine_ls_shift/su_mean         0.000
_refine_ls_structure_factor_coef Fsqd
_refine_ls_weighting_details
'w=1/[\s^2^(Fo^2^)+(0.0776P)^2^] where P=(Fo^2^+2Fc^2^)/3'
_refine_ls_weighting_scheme      calc
_refine_ls_wR_factor_gt          0.1404
_refine_ls_wR_factor_ref         0.1695
_reflns_Friedel_coverage         0.000
_reflns_number_gt                6043
_reflns_number_total             11906
_reflns_threshold_expression     'I > 2\s(I)'
_cod_data_source_file            d2dt03392e2.cif
_cod_data_source_block           shelx
_cod_original_sg_symbol_H-M      'P 21/n'
_cod_database_code               7712002
_shelx_shelxl_version_number     2014/7
_shelx_space_group_comment
;
The symmetry employed for this shelxl refinement is uniquely defined
by the following loop, which should always be used as a source of
symmetry information in preference to the above space-group names.
They are only intended as comments.
;
_shelx_res_file
;
    shelx.res created by SHELXL-2014/7

TITL SIR97 run in space group P 21/n
CELL  0.71073  21.4789   7.9353  32.6604   90.000  105.015   90.000
ZERR     4.00   0.0041   0.0016   0.0061    0.000    0.004    0.000
LATT   1
SYMM  1/2 - X, 1/2 + Y, 1/2 - Z
SFAC  C    H    N    O    CD
UNIT  192 104 8 60 4
MERG   2
ABIN
DFIX  1.6 0.02 N2 C44
DFIX  1.6 0.02 N2 C43
FMAP   2
PLAN    5
ACTA    50.00
BOND   $H
CONF
L.S.   5    0  143
TEMP    23.00
WGHT    0.077600
FVAR       0.07451
AFIX  66
C1    1   -0.021655   -0.257745   -0.031788    11.00000    0.02975    0.05120 =
         0.03450   -0.00520    0.01413   -0.00576
AFIX  43
H1    2   -0.045737   -0.257985   -0.059908    11.00000   -1.20000
AFIX  65
C2    1    0.040905   -0.320462   -0.021171    11.00000    0.02520    0.04761 =
         0.04323   -0.00555    0.01671    0.00192
C3    1    0.076897   -0.320104    0.020858    11.00000    0.02604    0.04738 =
         0.04626   -0.00404    0.01227    0.00297
C4    1    0.050330   -0.257029    0.052271    11.00000    0.03677    0.05731 =
         0.04126   -0.00225    0.01279    0.00303
AFIX  43
H4    2    0.074412   -0.256790    0.080391    11.00000   -1.20000
AFIX  65
C5    1   -0.012230   -0.194312    0.041655    11.00000    0.03832    0.04735 =
         0.03944   -0.00201    0.01743   -0.00035
C6    1   -0.048223   -0.194669   -0.000374    11.00000    0.02476    0.04268 =
         0.04945   -0.00377    0.01497   -0.00092
AFIX   0
C7    1    0.068594   -0.381934   -0.056220    11.00000    0.02803    0.05875 =
         0.05243   -0.00950    0.01694   -0.00215
AFIX  23
H7A   2    0.085837   -0.494738   -0.049974    11.00000   -1.20000
H7B   2    0.035362   -0.385084   -0.082760    11.00000   -1.20000
AFIX   0
C8    1    0.144958   -0.387653    0.032902    11.00000    0.02770    0.07441 =
         0.06114   -0.00780    0.00765    0.00473
AFIX  23
H8A   2    0.144033   -0.509320    0.035551    11.00000   -1.20000
H8B   2    0.166100   -0.360547    0.010846    11.00000   -1.20000
AFIX   0
C9    1   -0.037510   -0.115964    0.076731    11.00000    0.05357    0.06086 =
         0.04233   -0.00278    0.01571    0.01115
AFIX  23
H9A   2   -0.015680   -0.010090    0.085750    11.00000   -1.20000
H9B   2   -0.083352   -0.093971    0.066546    11.00000   -1.20000
AFIX   0
C10   1   -0.115853   -0.123669   -0.013490    11.00000    0.03011    0.05735 =
         0.04312    0.00383    0.01445    0.00374
AFIX  23
H10A  2   -0.115749   -0.007532   -0.004207    11.00000   -1.20000
H10B  2   -0.131824   -0.126321   -0.044117    11.00000   -1.20000
AFIX  66
C11   1    0.163981   -0.327078   -0.079438    11.00000    0.03628    0.05446 =
         0.05543    0.00318    0.02302    0.00981
C12   1    0.149732   -0.439071   -0.113313    11.00000    0.03713    0.08367 =
         0.05562   -0.01757    0.02108   -0.00378
AFIX  43
H12   2    0.107858   -0.478662   -0.123738    11.00000   -1.20000
AFIX  65
C13   1    0.198070   -0.491892   -0.131608    11.00000    0.05724    0.08768 =
         0.05791   -0.01506    0.03468    0.00565
AFIX  43
H13   2    0.188537   -0.566823   -0.154273    11.00000   -1.20000
AFIX  65
C14   1    0.260657   -0.432720   -0.116027    11.00000    0.04482    0.07053 =
         0.05537    0.00522    0.02892    0.01063
C15   1    0.274906   -0.320727   -0.082151    11.00000    0.03703    0.09042 =
         0.08001   -0.01940    0.02512   -0.00817
AFIX  43
H15   2    0.316780   -0.281137   -0.071727    11.00000   -1.20000
AFIX  65
C16   1    0.226568   -0.267905   -0.063857    11.00000    0.04120    0.08147 =
         0.07442   -0.02566    0.02909   -0.01000
AFIX  43
H16   2    0.236102   -0.192974   -0.041192    11.00000   -1.20000
AFIX   0
C17   1    0.314286   -0.493556   -0.134211    11.00000    0.06591    0.08717 =
         0.06580    0.00840    0.04390    0.01643
AFIX  66
C18   1    0.244892   -0.345565    0.083946    11.00000    0.03188    0.06740 =
         0.06215    0.00059    0.01151    0.01141
C19   1    0.278263   -0.448108    0.062406    11.00000    0.03787    0.06767 =
         0.06636   -0.01227    0.00588    0.00570
AFIX  43
H19   2    0.255908   -0.509443    0.038922    11.00000   -1.20000
AFIX  65
C20   1    0.345048   -0.458978    0.075965    11.00000    0.03316    0.07274 =
         0.07472   -0.00169    0.00780    0.01974
AFIX  43
H20   2    0.367376   -0.527586    0.061554    11.00000   -1.20000
AFIX  65
C21   1    0.378462   -0.367306    0.111064    11.00000    0.02865    0.06564 =
         0.07084    0.01034    0.00652    0.00579
C22   1    0.345091   -0.264762    0.132604    11.00000    0.04171    0.08341 =
         0.07352   -0.01887    0.00290    0.00291
AFIX  43
H22   2    0.367447   -0.203428    0.156088    11.00000   -1.20000
AFIX  65
C23   1    0.278306   -0.253891    0.119045    11.00000    0.04443    0.09451 =
         0.06876   -0.02535    0.00687    0.01005
AFIX  43
H23   2    0.255979   -0.185282    0.133457    11.00000   -1.20000
AFIX   0
C24   1    0.451279   -0.371400    0.124049    11.00000    0.04202    0.06639 =
         0.07492    0.02392    0.00363    0.00584
AFIX  66
C25   1   -0.040955   -0.178270    0.146794    11.00000    0.05818    0.06932 =
         0.04583   -0.00342    0.02120    0.00423
C26   1   -0.021363   -0.285136    0.181472    11.00000    0.09700    0.07041 =
         0.05166    0.00500    0.03453    0.02385
AFIX  43
H26   2   -0.000945   -0.386320    0.178768    11.00000   -1.20000
AFIX  65
C27   1   -0.032287   -0.240771    0.220193    11.00000    0.09650    0.07865 =
         0.04883    0.01041    0.02313    0.01314
AFIX  43
H27   2   -0.019179   -0.312272    0.243396    11.00000   -1.20000
AFIX  65
C28   1   -0.062805   -0.089540    0.224236    11.00000    0.05447    0.07812 =
         0.04929    0.00088    0.02717    0.00262
C29   1   -0.082397    0.017328    0.189558    11.00000    0.07238    0.07911 =
         0.05115   -0.00610    0.02749    0.02534
AFIX  43
H29   2   -0.102815    0.118512    0.192263    11.00000   -1.20000
AFIX  65
C30   1   -0.071473   -0.027035    0.150836    11.00000    0.06908    0.07776 =
         0.04550    0.00717    0.02086    0.02450
AFIX  43
H30   2   -0.084582    0.044466    0.127634    11.00000   -1.20000
AFIX  66
C31   1   -0.217779   -0.165219    0.001494    11.00000    0.02729    0.04771 =
         0.06100   -0.00760    0.01812    0.00778
C32   1   -0.247877   -0.045043   -0.027990    11.00000    0.03771    0.05983 =
         0.06894   -0.00352    0.01621    0.00750
AFIX  43
H32   2   -0.226147    0.001292   -0.046504    11.00000   -1.20000
AFIX  65
C33   1   -0.310453    0.005880   -0.029803    11.00000    0.03494    0.06790 =
         0.10661   -0.00528    0.00741    0.01154
AFIX  43
H33   2   -0.330591    0.086286   -0.049530    11.00000   -1.20000
AFIX  65
C34   1   -0.342931   -0.063372   -0.002132    11.00000    0.02796    0.07630 =
         0.12769   -0.04056    0.01218    0.00447
C35   1   -0.312834   -0.183548    0.027353    11.00000    0.04199    0.09967 =
         0.09717   -0.01519    0.03669   -0.00393
AFIX  43
H35   2   -0.334564   -0.229882    0.045867    11.00000   -1.20000
AFIX  65
C36   1   -0.250258   -0.234473    0.029166    11.00000    0.04124    0.07151 =
         0.07665    0.01813    0.02755    0.00897
AFIX  43
H36   2   -0.230120   -0.314879    0.048893    11.00000   -1.20000
AFIX   0
C37   1   -0.409301   -0.000027   -0.003991    11.00000    0.04519    0.09783 =
         0.25310   -0.05802    0.03516    0.00694
C38   1   -0.072028   -0.037081    0.266584    11.00000    0.04377    0.08845 =
         0.04773   -0.01539    0.02215   -0.00937
C39   1    0.666367   -0.049348    0.177749    11.00000    0.09001    0.06151 =
         0.19717    0.02319   -0.03203   -0.00264
C40   1    0.715083   -0.041462    0.144454    11.00000    0.27497    0.23703 =
         0.22071    0.05444    0.15659   -0.02994
AFIX  33
H40A  2    0.695219   -0.100926    0.118798    11.00000   -1.50000
H40B  2    0.721901    0.073915    0.137909    11.00000   -1.50000
H40C  2    0.755731   -0.092907    0.157791    11.00000   -1.50000
AFIX   0
C41   1    0.754106    0.113108    0.220652    11.00000    0.13833    0.22678 =
         0.18133    0.00545   -0.04080   -0.10286
AFIX  33
H41A  2    0.757369    0.156424    0.248574    11.00000   -1.50000
H41B  2    0.789491    0.038172    0.221457    11.00000   -1.50000
H41C  2    0.755343    0.204822    0.201710    11.00000   -1.50000
AFIX   0
C42   1    0.651468    0.014122    0.240157    11.00000    0.20226    0.19076 =
         0.13440    0.01612    0.08140    0.09071
AFIX  33
H42A  2    0.672517    0.073956    0.265512    11.00000   -1.50000
H42B  2    0.610078    0.063887    0.227949    11.00000   -1.50000
H42C  2    0.645952   -0.101717    0.246935    11.00000   -1.50000
AFIX   0
C43   1    0.065686   -0.360325    0.359219    11.00000    0.15142    0.11322 =
         0.33545   -0.04568   -0.05344    0.02496
AFIX  33
H43A  2    0.072158   -0.373278    0.331388    11.00000   -1.50000
H43B  2    0.078383   -0.248939    0.369538    11.00000   -1.50000
H43C  2    0.091231   -0.441908    0.377986    11.00000   -1.50000
AFIX   0
C44   1   -0.024197   -0.372511    0.396167    11.00000    0.29255    0.23378 =
         0.11455    0.01082    0.00461   -0.16500
AFIX  33
H44A  2   -0.069797   -0.392803    0.389233    11.00000   -1.50000
H44B  2   -0.002445   -0.454628    0.416457    11.00000   -1.50000
H44C  2   -0.015292   -0.261659    0.408009    11.00000   -1.50000
AFIX   0
N1    3    0.695452    0.024738    0.206262    11.00000    0.10790    0.08432 =
         0.17818   -0.00293   -0.06130   -0.01005
N2    3   -0.001170   -0.385521    0.357342    11.00000    0.17883    0.11642 =
         0.16267    0.01068   -0.04344   -0.04228
O1    4    0.479859   -0.270366    0.152263    11.00000    0.03947    0.10034 =
         0.09171    0.00483   -0.00573   -0.00525
O2    4    0.480830   -0.472834    0.106937    11.00000    0.03674    0.09901 =
         0.10616   -0.00176    0.00746    0.02037
O3    4    0.370154   -0.473208   -0.115010    11.00000    0.03617    0.20723 =
         0.10176   -0.03984    0.03062    0.01147
O4    4    0.299087   -0.562944   -0.169714    11.00000    0.08369    0.14310 =
         0.10836   -0.02567    0.06731    0.01135
O5    4   -0.431490    0.117373   -0.028354    11.00000    0.05724    0.17822 =
         0.44102    0.00698    0.05010    0.05297
O6    4   -0.442061   -0.078059    0.013928    11.00000    0.06950    0.19804 =
         0.32465   -0.03664    0.10672    0.01219
O7    4   -0.094805    0.107596    0.269017    11.00000    0.07918    0.10817 =
         0.04839   -0.00583    0.02657    0.02263
O8    4   -0.055704   -0.131760    0.297787    11.00000    0.09871    0.09935 =
         0.04443    0.00309    0.02884   -0.00073
O9    4    0.119056   -0.267378   -0.059453    11.00000    0.03999    0.05591 =
         0.06440   -0.00695    0.03377    0.00267
O10   4    0.179890   -0.316642    0.071689    11.00000    0.02818    0.09129 =
         0.06318   -0.02242    0.00396    0.01078
O11   4   -0.025901   -0.229642    0.110751    11.00000    0.10105    0.06468 =
         0.04906    0.00420    0.04344    0.02180
O12   4   -0.156625   -0.223317    0.005475    11.00000    0.02676    0.05013 =
         0.06870    0.00933    0.01927    0.00935
O13   4    0.614513   -0.114123    0.164697    11.00000    0.06697    0.07869 =
         0.11772    0.01322   -0.00186   -0.02024
CD1   5    0.582761   -0.392389    0.159869    11.00000    0.03127    0.07029 =
         0.04102   -0.00144    0.01451    0.00245
HKLF    4

REM  SIR97 run in space group P 21/n
REM R1 =  0.0583 for    6043 Fo > 4sig(Fo)  and  0.1230 for all   11906 data
REM    481 parameters refined using      2 restraints

END

WGHT      0.0776      0.0000

REM Highest difference peak  0.502,  deepest hole -0.526,  1-sigma level  0.076
Q1    1  -0.0029 -0.4757  0.3861  11.00000  0.05    0.50
Q2    1  -0.0636 -0.7175  0.4085  11.00000  0.05    0.44
Q3    1  -0.4361  0.1152 -0.0430  11.00000  0.05    0.43
Q4    1   0.3192 -0.6168 -0.1427  11.00000  0.05    0.40
Q5    1   0.6383 -0.2942  0.1531  11.00000  0.05    0.38
;
_shelx_res_checksum              85364
_shelx_fab_file
;
    2    0    0    -35.39      0.00
    4    0    0    -37.31      0.00
    6    0    0    -10.76      0.00
    8    0    0     -0.50      0.00
   10    0    0    -10.55      0.00
   12    0    0     -2.88      0.00
   14    0    0      3.90      0.00
   16    0    0      3.60      0.00
   18    0    0      0.07      0.00
   20    0    0      1.72      0.00
   22    0    0     -0.57      0.00
   24    0    0     -4.39      0.00
   26    0    0      6.72      0.00
    1    1    0     38.49      0.00
    2    1    0    -62.02      0.00
    3    1    0     12.97      0.00
    4    1    0    -24.25      0.00
    5    1    0    -28.29      0.00
    6    1    0    -17.52      0.00
    7    1    0     -2.36      0.00
    8    1    0      2.76      0.00
    9    1    0      2.59      0.00
   10    1    0     -1.99      0.00
   11    1    0     -0.02      0.00
   12    1    0     -1.47      0.00
   13    1    0     -0.63      0.00
   14    1    0      1.45      0.00
   15    1    0     -0.13      0.00
   16    1    0      0.32      0.00
   17    1    0      2.92      0.00
   18    1    0      0.73      0.00
   19    1    0      1.72      0.00
   20    1    0     -2.49      0.00
   21    1    0     -1.90      0.00
   22    1    0      1.27      0.00
   23    1    0     -1.58      0.00
   24    1    0      0.02      0.00
   25    1    0      2.21      0.00
   26    1    0      0.07      0.00
    0    2    0     15.44      0.00
    1    2    0      6.78      0.00
    2    2    0     15.29      0.00
    3    2    0    -11.42      0.00
    4    2    0    -22.92      0.00
    5    2    0      3.74      0.00
    6    2    0     10.07      0.00
    7    2    0      6.51      0.00
    8    2    0      2.99      0.00
    9    2    0      4.70      0.00
   10    2    0      2.33      0.00
   11    2    0      1.80      0.00
   12    2    0     -2.84      0.00
   13    2    0     -1.28      0.00
   14    2    0     -1.77      0.00
   15    2    0     -1.88      0.00
   16    2    0     -0.16      0.00
   17    2    0      0.10      0.00
   18    2    0     -1.14      0.00
   19    2    0      0.44      0.00
   20    2    0     -0.06      0.00
   21    2    0     -1.36      0.00
   22    2    0     -4.15      0.00
   23    2    0      3.13      0.00
   24    2    0      4.63      0.00
   25    2    0      2.56      0.00
   26    2    0      1.04      0.00
    1    3    0     16.38      0.00
    2    3    0     -0.98      0.00
    3    3    0     10.06      0.00
    4    3    0     -0.18      0.00
    5    3    0      4.82      0.00
    6    3    0      1.05      0.00
    7    3    0     -2.31      0.00
    8    3    0      6.76      0.00
    9    3    0     -0.53      0.00
   10    3    0     -1.43      0.00
   11    3    0     -3.16      0.00
   12    3    0     -2.75      0.00
   13    3    0     -0.33      0.00
   14    3    0     -4.64      0.00
   15    3    0     -1.34      0.00
   16    3    0     -0.18      0.00
   17    3    0      3.12      0.00
   18    3    0      1.17      0.00
   19    3    0      2.42      0.00
   20    3    0      0.63      0.00
   21    3    0      5.23      0.00
   22    3    0      1.21      0.00
   23    3    0     -2.51      0.00
   24    3    0     -0.45      0.00
   25    3    0      2.43      0.00
    0    4    0      6.64      0.00
    1    4    0     -1.50      0.00
    2    4    0     -3.00      0.00
    3    4    0     -3.71      0.00
    4    4    0     -4.34      0.00
    5    4    0     -2.38      0.00
    6    4    0     -0.53      0.00
    7    4    0      1.09      0.00
    8    4    0     -2.12      0.00
    9    4    0     -1.66      0.00
   10    4    0     -4.70      0.00
   11    4    0     -0.37      0.00
   12    4    0     -3.48      0.00
   13    4    0     -1.38      0.00
   14    4    0     -2.25      0.00
   15    4    0     -0.55      0.00
   16    4    0      1.23      0.00
   17    4    0      1.58      0.00
   18    4    0     -0.73      0.00
   19    4    0      1.38      0.00
   20    4    0     -1.43      0.00
   21    4    0      0.94      0.00
   22    4    0     -0.93      0.00
   23    4    0      1.64      0.00
   24    4    0     -1.27      0.00
    1    5    0     -0.79      0.00
    2    5    0      0.24      0.00
    3    5    0     -0.71      0.00
    4    5    0      1.49      0.00
    5    5    0     -0.64      0.00
    6    5    0      0.14      0.00
    7    5    0     -1.63      0.00
    8    5    0      0.48      0.00
    9    5    0     -0.51      0.00
   10    5    0     -1.47      0.00
   11    5    0      0.27      0.00
   12    5    0      0.30      0.00
   13    5    0     -1.78      0.00
   14    5    0      1.93      0.00
   15    5    0      0.50      0.00
   16    5    0     -2.45      0.00
   17    5    0     -0.58      0.00
   18    5    0     -1.96      0.00
   19    5    0     -0.77      0.00
   20    5    0     -1.59      0.00
   21    5    0     -1.98      0.00
   22    5    0      3.37      0.00
   23    5    0      0.78      0.00
    0    6    0      0.58      0.00
    1    6    0     -1.68      0.00
    2    6    0     -2.30      0.00
    3    6    0     -1.01      0.00
    4    6    0     -2.01      0.00
    5    6    0      2.68      0.00
    6    6    0     -0.73      0.00
    7    6    0     -0.11      0.00
    8    6    0     -1.86      0.00
    9    6    0     -0.44      0.00
   10    6    0     -1.03      0.00
   11    6    0      2.06      0.00
   12    6    0     -1.54      0.00
   13    6    0     -2.30      0.00
   14    6    0      0.18      0.00
   15    6    0     -1.70      0.00
   16    6    0     -0.12      0.00
   17    6    0     -0.21      0.00
   18    6    0     -1.28      0.00
   19    6    0      0.74      0.00
   20    6    0      4.51      0.00
   21    6    0     -0.04      0.00
    1    7    0      1.48      0.00
    2    7    0      0.65      0.00
    3    7    0     -3.92      0.00
    4    7    0     -1.27      0.00
    5    7    0      1.45      0.00
    6    7    0      2.90      0.00
    7    7    0     -0.17      0.00
    8    7    0      0.94      0.00
    9    7    0     -0.91      0.00
   10    7    0      0.64      0.00
   11    7    0      0.88      0.00
   12    7    0      3.28      0.00
   13    7    0     -2.91      0.00
   14    7    0     -2.24      0.00
   15    7    0     -0.90      0.00
   16    7    0      1.49      0.00
   17    7    0      5.83      0.00
   18    7    0     -1.92      0.00
   19    7    0     -2.24      0.00
    0    8    0      4.21      0.00
    1    8    0     -1.75      0.00
    2    8    0     -2.25      0.00
    3    8    0      1.57      0.00
    4    8    0      0.55      0.00
    5    8    0     -1.25      0.00
    6    8    0     -5.02      0.00
    7    8    0     -2.67      0.00
    8    8    0     -1.09      0.00
    9    8    0      5.39      0.00
   10    8    0     -3.75      0.00
   11    8    0      2.57      0.00
   12    8    0     -0.87      0.00
   13    8    0     -0.27      0.00
   14    8    0      0.72      0.00
   15    8    0      1.92      0.00
   16    8    0      5.73      0.00
    1    9    0      0.38      0.00
    2    9    0      4.84      0.00
    3    9    0     -3.19      0.00
    4    9    0     -1.99      0.00
    5    9    0      1.54      0.00
    6    9    0      2.79      0.00
    7    9    0      1.44      0.00
    8    9    0     -3.51      0.00
    9    9    0     -0.87      0.00
   10    9    0      1.74      0.00
   11    9    0     -3.05      0.00
   12    9    0      2.96      0.00
    0   10    0      1.96      0.00
    1   10    0      1.68      0.00
    2   10    0      1.22      0.00
    3   10    0      4.32      0.00
    4   10    0     -4.32      0.00
    5   10    0     -2.87      0.00
  -25    0    1     -6.14      0.00
  -23    0    1     -0.12      0.00
  -21    0    1      0.80      0.00
  -19    0    1     -1.62      0.00
  -17    0    1     -0.69      0.00
  -15    0    1      0.48      0.00
  -13    0    1     -3.44      0.00
  -11    0    1     -1.86      0.00
   -9    0    1      8.87      0.00
   -7    0    1     -2.84      0.00
   -5    0    1    -26.23      0.00
   -3    0    1     -3.15      0.00
   -1    0    1    316.88      0.00
    3    0    1   -110.44      0.00
    5    0    1    -12.00      0.00
    7    0    1     11.80      0.00
    9    0    1     -4.02      0.00
   11    0    1     -1.28      0.00
   13    0    1      0.64      0.00
   15    0    1     -0.75      0.00
   17    0    1     -5.06      0.00
   19    0    1     -0.28      0.00
   21    0    1     -1.53      0.00
   23    0    1     -2.06      0.00
   25    0    1      6.64      0.00
  -26    1    1      0.55      0.00
  -25    1    1     -3.11      0.00
  -24    1    1     -3.85      0.00
  -23    1    1     -1.42      0.00
  -22    1    1     -3.41      0.00
  -21    1    1      0.31      0.00
  -20    1    1     -0.80      0.00
  -19    1    1     -1.67      0.00
  -18    1    1     -1.68      0.00
  -17    1    1     -1.41      0.00
  -16    1    1     -3.80      0.00
  -15    1    1     -1.06      0.00
  -14    1    1     -0.59      0.00
  -13    1    1      1.35      0.00
  -12    1    1      3.22      0.00
  -11    1    1     -0.84      0.00
  -10    1    1      6.20      0.00
   -9    1    1     -0.82      0.00
   -8    1    1     -1.69      0.00
   -7    1    1      9.05      0.00
   -6    1    1    -18.76      0.00
   -5    1    1      5.30      0.00
   -4    1    1      2.48      0.00
   -3    1    1    -10.27      0.00
   -2    1    1    -17.47      0.00
   -1    1    1    -29.12      0.00
    0    1    1    -37.42      0.00
    1    1    1   -113.19      0.00
    2    1    1    -38.68      0.00
    3    1    1     -6.22      0.00
    4    1    1    -33.06      0.00
    5    1    1     -9.29      0.00
    6    1    1     17.95      0.00
    7    1    1     10.79      0.00
    8    1    1     13.29      0.00
    9    1    1     -2.10      0.00
   10    1    1      2.94      0.00
   11    1    1      2.30      0.00
   12    1    1     -2.49      0.00
   13    1    1      2.56      0.00
   14    1    1     -2.76      0.00
   15    1    1      0.81      0.00
   16    1    1     -0.67      0.00
   17    1    1      0.58      0.00
   18    1    1     -1.51      0.00
   19    1    1     -1.98      0.00
   20    1    1     -1.98      0.00
   21    1    1      2.58      0.00
   22    1    1     -0.16      0.00
   23    1    1      0.33      0.00
   24    1    1      2.48      0.00
   25    1    1      0.82      0.00
   26    1    1      3.05      0.00
  -26    2    1     -4.87      0.00
  -25    2    1      0.99      0.00
  -24    2    1     -0.79      0.00
  -23    2    1     -6.63      0.00
  -22    2    1      2.64      0.00
  -21    2    1      0.58      0.00
  -20    2    1      0.94      0.00
  -19    2    1     -1.84      0.00
  -18    2    1     -0.47      0.00
  -17    2    1     -1.55      0.00
  -16    2    1      0.49      0.00
  -15    2    1     -1.71      0.00
  -14    2    1     -0.51      0.00
  -13    2    1      2.49      0.00
  -12    2    1     -2.39      0.00
  -11    2    1      7.73      0.00
  -10    2    1     -3.90      0.00
   -9    2    1      6.64      0.00
   -8    2    1     -1.26      0.00
   -7    2    1      3.46      0.00
   -6    2    1      4.22      0.00
   -5    2    1    -30.53      0.00
   -4    2    1     17.94      0.00
   -3    2    1     -9.92      0.00
   -2    2    1      3.49      0.00
   -1    2    1    -24.87      0.00
    0    2    1     21.52      0.00
    1    2    1    -23.84      0.00
    2    2    1      4.09      0.00
    3    2    1    -26.23      0.00
    4    2    1     16.15      0.00
    5    2    1     19.73      0.00
    6    2    1      7.99      0.00
    7    2    1      9.90      0.00
    8    2    1      0.06      0.00
    9    2    1      4.98      0.00
   10    2    1     -1.44      0.00
   11    2    1     -5.07      0.00
   12    2    1     -2.92      0.00
   13    2    1     -3.52      0.00
   14    2    1     -1.36      0.00
   15    2    1     -2.31      0.00
   16    2    1      0.15      0.00
   17    2    1     -2.78      0.00
   18    2    1      0.91      0.00
   19    2    1     -0.11      0.00
   20    2    1     -1.60      0.00
   21    2    1     -0.27      0.00
   22    2    1      4.52      0.00
   23    2    1      3.48      0.00
   24    2    1      1.35      0.00
   25    2    1     -2.74      0.00
  -25    3    1     -0.47      0.00
  -24    3    1     -1.16      0.00
  -23    3    1     -1.02      0.00
  -22    3    1      3.96      0.00
  -21    3    1     -0.23      0.00
  -20    3    1      0.35      0.00
  -19    3    1     -0.50      0.00
  -18    3    1     -1.04      0.00
  -17    3    1      0.50      0.00
  -16    3    1     -4.00      0.00
  -15    3    1      2.23      0.00
  -14    3    1      0.44      0.00
  -13    3    1     -1.90      0.00
  -12    3    1      1.92      0.00
  -11    3    1     -3.19      0.00
  -10    3    1      6.76      0.00
   -9    3    1     -9.55      0.00
   -8    3    1      3.89      0.00
   -7    3    1     -1.16      0.00
   -6    3    1      4.83      0.00
   -5    3    1     -3.71      0.00
   -4    3    1     -0.37      0.00
   -3    3    1     -0.38      0.00
   -2    3    1     -6.85      0.00
   -1    3    1     -5.91      0.00
    0    3    1     -8.90      0.00
    1    3    1      1.51      0.00
    2    3    1     -9.05      0.00
    3    3    1     -0.47      0.00
    4    3    1     -3.57      0.00
    5    3    1      2.91      0.00
    6    3    1     -2.02      0.00
    7    3    1      3.24      0.00
    8    3    1      3.68      0.00
    9    3    1     -5.50      0.00
   10    3    1     -0.75      0.00
   11    3    1     -6.49      0.00
   12    3    1     -0.96      0.00
   13    3    1     -3.75      0.00
   14    3    1     -2.23      0.00
   15    3    1      2.00      0.00
   16    3    1      1.22      0.00
   17    3    1      2.38      0.00
   18    3    1      0.04      0.00
   19    3    1      1.15      0.00
   20    3    1      2.26      0.00
   21    3    1     -0.45      0.00
   22    3    1     -4.86      0.00
   23    3    1     -2.25      0.00
   24    3    1      0.05      0.00
   25    3    1     -1.33      0.00
  -24    4    1     -4.66      0.00
  -23    4    1     -0.21      0.00
  -22    4    1     -1.16      0.00
  -21    4    1     -1.93      0.00
  -20    4    1     -2.46      0.00
  -19    4    1     -1.18      0.00
  -18    4    1     -2.66      0.00
  -17    4    1      0.95      0.00
  -16    4    1      0.49      0.00
  -15    4    1     -2.23      0.00
  -14    4    1     -0.28      0.00
  -13    4    1     -0.26      0.00
  -12    4    1     -0.69      0.00
  -11    4    1      1.87      0.00
  -10    4    1      0.44      0.00
   -9    4    1      4.02      0.00
   -8    4    1     -3.08      0.00
   -7    4    1      2.81      0.00
   -6    4    1      0.46      0.00
   -5    4    1     -2.67      0.00
   -4    4    1     -1.69      0.00
   -3    4    1     -2.09      0.00
   -2    4    1     -2.27      0.00
   -1    4    1      2.54      0.00
    0    4    1     -2.16      0.00
    1    4    1     -5.24      0.00
    2    4    1     -1.22      0.00
    3    4    1     -0.58      0.00
    4    4    1      2.05      0.00
    5    4    1      6.05      0.00
    6    4    1      2.37      0.00
    7    4    1      3.87      0.00
    8    4    1     -2.05      0.00
    9    4    1      0.08      0.00
   10    4    1     -0.72      0.00
   11    4    1     -1.09      0.00
   12    4    1     -0.39      0.00
   13    4    1     -1.13      0.00
   14    4    1      0.66      0.00
   15    4    1      2.09      0.00
   16    4    1      1.40      0.00
   17    4    1     -0.48      0.00
   18    4    1      0.16      0.00
   19    4    1     -1.26      0.00
   20    4    1     -1.33      0.00
   21    4    1     -0.91      0.00
   22    4    1     -4.47      0.00
   23    4    1     -0.46      0.00
   24    4    1     -4.57      0.00
  -23    5    1     -1.04      0.00
  -22    5    1     -0.84      0.00
  -21    5    1      0.87      0.00
  -20    5    1     -0.66      0.00
  -19    5    1      2.65      0.00
  -18    5    1      1.39      0.00
  -17    5    1      1.03      0.00
  -16    5    1      1.80      0.00
  -15    5    1     -2.13      0.00
  -14    5    1     -0.52      0.00
  -13    5    1     -0.38      0.00
  -12    5    1      1.62      0.00
  -11    5    1      0.77      0.00
  -10    5    1      0.38      0.00
   -9    5    1      0.33      0.00
   -8    5    1      1.31      0.00
   -7    5    1      0.59      0.00
   -6    5    1      0.96      0.00
   -5    5    1     -0.80      0.00
   -4    5    1      0.35      0.00
   -3    5    1      0.47      0.00
   -2    5    1     -0.71      0.00
   -1    5    1      0.48      0.00
    0    5    1     -1.57      0.00
    1    5    1      2.44      0.00
    2    5    1      0.73      0.00
    3    5    1      3.42      0.00
    4    5    1      2.35      0.00
    5    5    1      1.45      0.00
    6    5    1      1.30      0.00
    7    5    1      0.22      0.00
    8    5    1      3.18      0.00
    9    5    1     -2.67      0.00
   10    5    1      0.88      0.00
   11    5    1      1.80      0.00
   12    5    1     -0.41      0.00
   13    5    1      2.79      0.00
   14    5    1      2.19      0.00
   15    5    1     -1.92      0.00
   16    5    1     -0.38      0.00
   17    5    1     -0.16      0.00
   18    5    1     -1.95      0.00
   19    5    1      0.69      0.00
   20    5    1     -3.41      0.00
   21    5    1      4.90      0.00
   22    5    1      1.63      0.00
   23    5    1     -0.90      0.00
  -21    6    1      3.43      0.00
  -20    6    1     -2.55      0.00
  -19    6    1     -3.55      0.00
  -18    6    1     -0.45      0.00
  -17    6    1      0.10      0.00
  -16    6    1      1.28      0.00
  -15    6    1      0.67      0.00
  -14    6    1     -0.72      0.00
  -13    6    1      0.05      0.00
  -12    6    1      0.02      0.00
  -11    6    1     -0.37      0.00
  -10    6    1      2.14      0.00
   -9    6    1      0.46      0.00
   -8    6    1      0.71      0.00
   -7    6    1      2.26      0.00
   -6    6    1     -1.58      0.00
   -5    6    1      1.07      0.00
   -4    6    1      1.84      0.00
   -3    6    1      2.28      0.00
   -2    6    1      0.75      0.00
   -1    6    1      2.20      0.00
    0    6    1     -1.47      0.00
    1    6    1     -0.84      0.00
    2    6    1      0.87      0.00
    3    6    1      1.58      0.00
    4    6    1      2.73      0.00
    5    6    1      1.47      0.00
    6    6    1     -1.53      0.00
    7    6    1      0.26      0.00
    8    6    1     -1.19      0.00
    9    6    1      1.59      0.00
   10    6    1      1.40      0.00
   11    6    1     -0.01      0.00
   12    6    1     -1.65      0.00
   13    6    1      2.60      0.00
   14    6    1      1.47      0.00
   15    6    1      1.35      0.00
   16    6    1     -0.04      0.00
   17    6    1      0.14      0.00
   18    6    1     -0.54      0.00
   19    6    1      1.92      0.00
   20    6    1     -0.01      0.00
   21    6    1     -2.04      0.00
  -19    7    1      4.97      0.00
  -18    7    1      5.59      0.00
  -17    7    1     -1.44      0.00
  -16    7    1     -4.64      0.00
  -15    7    1      1.92      0.00
  -14    7    1     -1.64      0.00
  -13    7    1     -3.30      0.00
  -12    7    1      2.06      0.00
  -11    7    1     -0.10      0.00
  -10    7    1      0.03      0.00
   -9    7    1     -0.17      0.00
   -8    7    1      2.53      0.00
   -7    7    1     -0.46      0.00
   -6    7    1      1.29      0.00
   -5    7    1      3.21      0.00
   -4    7    1      0.27      0.00
   -3    7    1      1.86      0.00
   -2    7    1      3.91      0.00
   -1    7    1      1.66      0.00
    0    7    1      0.72      0.00
    1    7    1      0.59      0.00
    2    7    1     -0.72      0.00
    3    7    1     -1.50      0.00
    4    7    1      5.95      0.00
    5    7    1      2.30      0.00
    6    7    1     -0.65      0.00
    7    7    1     -1.32      0.00
    8    7    1      0.01      0.00
    9    7    1     -1.67      0.00
   10    7    1      1.77      0.00
   11    7    1      0.86      0.00
   12    7    1     -3.99      0.00
   13    7    1     -2.35      0.00
   14    7    1      2.21      0.00
   15    7    1      1.34      0.00
   16    7    1      3.33      0.00
   17    7    1     -0.19      0.00
   18    7    1     -2.63      0.00
   19    7    1      2.02      0.00
  -16    8    1     -2.50      0.00
  -15    8    1     -0.30      0.00
  -14    8    1      2.16      0.00
  -13    8    1      0.54      0.00
  -12    8    1     -3.73      0.00
  -11    8    1     -1.91      0.00
  -10    8    1     -2.07      0.00
   -9    8    1      1.85      0.00
   -8    8    1      3.46      0.00
   -7    8    1     -0.52      0.00
   -6    8    1      2.29      0.00
   -5    8    1      5.10      0.00
   -4    8    1     -2.57      0.00
   -3    8    1      1.19      0.00
   -2    8    1      0.48      0.00
   -1    8    1      3.87      0.00
    0    8    1     -4.63      0.00
    1    8    1     -2.13      0.00
    2    8    1     -0.82      0.00
    3    8    1      2.70      0.00
    4    8    1      0.03      0.00
    5    8    1     -1.74      0.00
    6    8    1     -1.89      0.00
    7    8    1      4.05      0.00
    8    8    1      5.57      0.00
    9    8    1     -0.63      0.00
   10    8    1     -1.28      0.00
   11    8    1      0.06      0.00
   12    8    1     -1.99      0.00
   13    8    1      1.89      0.00
   14    8    1     -0.91      0.00
   15    8    1      3.51      0.00
   16    8    1     -1.99      0.00
  -12    9    1     -4.78      0.00
  -11    9    1     -1.01      0.00
  -10    9    1      0.51      0.00
   -9    9    1      1.44      0.00
   -8    9    1      4.13      0.00
   -7    9    1     -1.91      0.00
   -6    9    1      3.14      0.00
   -5    9    1      7.70      0.00
   -4    9    1      0.28      0.00
   -3    9    1     -3.67      0.00
   -2    9    1      1.70      0.00
   -1    9    1      5.82      0.00
    0    9    1     -0.44      0.00
    1    9    1      1.38      0.00
    2    9    1     -1.81      0.00
    3    9    1     -1.00      0.00
    4    9    1      3.00      0.00
    5    9    1      2.86      0.00
    6    9    1      0.02      0.00
    7    9    1     -4.89      0.00
    8    9    1     -1.96      0.00
    9    9    1      2.86      0.00
   10    9    1     -1.83      0.00
   11    9    1      2.13      0.00
   12    9    1      1.00      0.00
   -5   10    1     -3.14      0.00
   -4   10    1     -3.70      0.00
   -3   10    1      2.92      0.00
   -2   10    1      1.51      0.00
   -1   10    1      0.63      0.00
    0   10    1      1.14      0.00
    1   10    1     -0.39      0.00
    2   10    1     -0.29      0.00
    3   10    1     -1.95      0.00
    4   10    1     -3.96      0.00
    5   10    1      2.94      0.00
  -26    0    2     -6.63      0.00
  -24    0    2      0.48      0.00
  -22    0    2      2.19      0.00
  -20    0    2      1.37      0.00
  -18    0    2      3.31      0.00
  -16    0    2      3.63      0.00
  -14    0    2     -2.46      0.00
  -12    0    2     -4.28      0.00
  -10    0    2     -2.24      0.00
   -8    0    2     -7.22      0.00
   -6    0    2     -3.68      0.00
   -4    0    2     51.95      0.00
   -2    0    2    186.64      0.00
    2    0    2    -42.33      0.00
    4    0    2     26.31      0.00
    6    0    2     15.80      0.00
    8    0    2     -9.81      0.00
   10    0    2     -1.21      0.00
   12    0    2      6.55      0.00
   14    0    2      4.88      0.00
   16    0    2      0.79      0.00
   18    0    2      4.86      0.00
   20    0    2      0.35      0.00
   22    0    2     -1.04      0.00
   24    0    2      3.22      0.00
   26    0    2     -2.59      0.00
  -26    1    2     -0.21      0.00
  -25    1    2     -2.20      0.00
  -24    1    2      1.44      0.00
  -23    1    2     -0.41      0.00
  -22    1    2     -1.77      0.00
  -21    1    2      2.69      0.00
  -20    1    2     -1.13      0.00
  -19    1    2      2.04      0.00
  -18    1    2     -0.76      0.00
  -17    1    2      1.26      0.00
  -16    1    2      1.86      0.00
  -15    1    2      3.77      0.00
  -14    1    2      1.38      0.00
  -13    1    2      2.25      0.00
  -12    1    2     -1.29      0.00
  -11    1    2     -2.37      0.00
  -10    1    2      2.39      0.00
   -9    1    2     -9.39      0.00
   -8    1    2      6.54      0.00
   -7    1    2     -5.28      0.00
   -6    1    2      1.63      0.00
   -5    1    2     31.13      0.00
   -4    1    2    -23.29      0.00
   -3    1    2     37.11      0.00
   -2    1    2     -8.47      0.00
   -1    1    2     40.25      0.00
    0    1    2    -93.89      0.00
    1    1    2     33.48      0.00
    2    1    2     44.31      0.00
    3    1    2     12.18      0.00
    4    1    2      8.63      0.00
    5    1    2     29.51      0.00
    6    1    2     20.93      0.00
    7    1    2     -0.64      0.00
    8    1    2      0.27      0.00
    9    1    2     -8.53      0.00
   10    1    2      7.30      0.00
   11    1    2     -3.93      0.00
   12    1    2      2.06      0.00
   13    1    2      2.29      0.00
   14    1    2      0.55      0.00
   15    1    2      3.89      0.00
   16    1    2     -0.67      0.00
   17    1    2      1.50      0.00
   18    1    2     -1.13      0.00
   19    1    2     -0.22      0.00
   20    1    2      2.11      0.00
   21    1    2     -0.10      0.00
   22    1    2     -1.15      0.00
   23    1    2      1.91      0.00
   24    1    2     -1.41      0.00
   25    1    2      2.81      0.00
   26    1    2     -4.47      0.00
  -26    2    2      1.63      0.00
  -25    2    2      2.81      0.00
  -24    2    2     -2.90      0.00
  -23    2    2      2.41      0.00
  -22    2    2      3.89      0.00
  -21    2    2      0.84      0.00
  -20    2    2      1.82      0.00
  -19    2    2     -0.22      0.00
  -18    2    2      3.01      0.00
  -17    2    2      0.68      0.00
  -16    2    2      2.78      0.00
  -15    2    2      0.78      0.00
  -14    2    2      4.11      0.00
  -13    2    2     -0.29      0.00
  -12    2    2      0.78      0.00
  -11    2    2     -0.14      0.00
  -10    2    2     -3.65      0.00
   -9    2    2      5.60      0.00
   -8    2    2     -5.28      0.00
   -7    2    2      8.43      0.00
   -6    2    2    -14.83      0.00
   -5    2    2     13.60      0.00
   -4    2    2     16.09      0.00
   -3    2    2     -5.62      0.00
   -2    2    2     26.67      0.00
   -1    2    2      6.74      0.00
    0    2    2     21.59      0.00
    1    2    2    -10.89      0.00
    2    2    2     19.74      0.00
    3    2    2      4.97      0.00
    4    2    2     27.64      0.00
    5    2    2     -2.41      0.00
    6    2    2      2.19      0.00
    7    2    2     -5.19      0.00
    8    2    2     -7.79      0.00
    9    2    2     -2.14      0.00
   10    2    2    -11.15      0.00
   11    2    2     -3.40      0.00
   12    2    2     -1.17      0.00
   13    2    2     -0.21      0.00
   14    2    2      3.05      0.00
   15    2    2      0.73      0.00
   16    2    2      2.56      0.00
   17    2    2      1.75      0.00
   18    2    2      4.08      0.00
   19    2    2     -1.31      0.00
   20    2    2      2.92      0.00
   21    2    2      3.17      0.00
   22    2    2      1.31      0.00
   23    2    2     -2.24      0.00
   24    2    2     -2.70      0.00
   25    2    2     -1.28      0.00
  -25    3    2      2.54      0.00
  -24    3    2     -2.21      0.00
  -23    3    2      1.26      0.00
  -22    3    2     -1.41      0.00
  -21    3    2     -0.10      0.00
  -20    3    2      0.45      0.00
  -19    3    2     -1.20      0.00
  -18    3    2     -0.01      0.00
  -17    3    2     -1.85      0.00
  -16    3    2      1.19      0.00
  -15    3    2      2.44      0.00
  -14    3    2     -1.28      0.00
  -13    3    2     -0.29      0.00
  -12    3    2     -1.33      0.00
  -11    3    2     -1.28      0.00
  -10    3    2     -3.75      0.00
   -9    3    2     -4.99      0.00
   -8    3    2      5.94      0.00
   -7    3    2     -2.99      0.00
   -6    3    2      3.22      0.00
   -5    3    2     -2.56      0.00
   -4    3    2      9.35      0.00
   -3    3    2     -1.96      0.00
   -2    3    2      0.39      0.00
   -1    3    2      4.06      0.00
    0    3    2      8.26      0.00
    1    3    2      0.22      0.00
    2    3    2     -0.25      0.00
    3    3    2      0.01      0.00
    4    3    2      2.86      0.00
    5    3    2     -3.35      0.00
    6    3    2      1.33      0.00
    7    3    2     -1.59      0.00
    8    3    2     -3.86      0.00
    9    3    2     -6.03      0.00
   10    3    2     -3.66      0.00
   11    3    2     -1.52      0.00
   12    3    2      1.51      0.00
   13    3    2      1.10      0.00
   14    3    2      3.91      0.00
   15    3    2      2.00      0.00
   16    3    2      1.94      0.00
   17    3    2      0.79      0.00
   18    3    2      0.69      0.00
   19    3    2     -0.14      0.00
   20    3    2     -1.29      0.00
   21    3    2     -4.54      0.00
   22    3    2     -1.93      0.00
   23    3    2     -0.65      0.00
   24    3    2      0.46      0.00
   25    3    2      1.44      0.00
  -24    4    2      1.13      0.00
  -23    4    2      0.69      0.00
  -22    4    2     -0.57      0.00
  -21    4    2      1.06      0.00
  -20    4    2      1.52      0.00
  -19    4    2      0.41      0.00
  -18    4    2      3.42      0.00
  -17    4    2      2.69      0.00
  -16    4    2     -0.53      0.00
  -15    4    2     -1.13      0.00
  -14    4    2      2.27      0.00
  -13    4    2     -0.67      0.00
  -12    4    2      0.54      0.00
  -11    4    2      0.25      0.00
  -10    4    2     -0.57      0.00
   -9    4    2     -1.48      0.00
   -8    4    2     -0.27      0.00
   -7    4    2      3.34      0.00
   -6    4    2     -1.07      0.00
   -5    4    2     -1.69      0.00
   -4    4    2      4.16      0.00
   -3    4    2     -0.27      0.00
   -2    4    2      7.70      0.00
   -1    4    2      0.01      0.00
    0    4    2      3.44      0.00
    1    4    2      0.38      0.00
    2    4    2      3.91      0.00
    3    4    2      2.22      0.00
    4    4    2      4.73      0.00
    5    4    2      0.74      0.00
    6    4    2     -2.50      0.00
    7    4    2     -1.75      0.00
    8    4    2     -4.90      0.00
    9    4    2      1.80      0.00
   10    4    2     -2.53      0.00
   11    4    2      2.33      0.00
   12    4    2      0.88      0.00
   13    4    2      1.44      0.00
   14    4    2      2.83      0.00
   15    4    2      1.28      0.00
   16    4    2     -1.01      0.00
   17    4    2     -1.11      0.00
   18    4    2     -0.94      0.00
   19    4    2     -2.64      0.00
   20    4    2      0.09      0.00
   21    4    2     -4.14      0.00
   22    4    2      1.27      0.00
   23    4    2      1.10      0.00
   24    4    2      0.85      0.00
  -23    5    2      1.47      0.00
  -22    5    2     -0.66      0.00
  -21    5    2     -1.22      0.00
  -20    5    2      4.45      0.00
  -19    5    2      1.76      0.00
  -18    5    2      1.08      0.00
  -17    5    2      0.97      0.00
  -16    5    2      0.51      0.00
  -15    5    2     -0.42      0.00
  -14    5    2      0.73      0.00
  -13    5    2      0.48      0.00
  -12    5    2      1.31      0.00
  -11    5    2     -2.25      0.00
  -10    5    2      1.73      0.00
   -9    5    2     -2.11      0.00
   -8    5    2      2.17      0.00
   -7    5    2     -2.83      0.00
   -6    5    2      1.52      0.00
   -5    5    2     -1.74      0.00
   -4    5    2      1.59      0.00
   -3    5    2     -0.53      0.00
   -2    5    2      0.83      0.00
   -1    5    2     -0.63      0.00
    0    5    2      1.00      0.00
    1    5    2      1.16      0.00
    2    5    2     -0.54      0.00
    3    5    2      0.32      0.00
    4    5    2     -2.70      0.00
    5    5    2     -2.14      0.00
    6    5    2     -1.87      0.00
    7    5    2     -1.01      0.00
    8    5    2     -1.20      0.00
    9    5    2     -3.31      0.00
   10    5    2      4.87      0.00
   11    5    2     -0.93      0.00
   12    5    2      1.97      0.00
   13    5    2      0.50      0.00
   14    5    2     -3.16      0.00
   15    5    2     -3.34      0.00
   16    5    2     -0.90      0.00
   17    5    2     -2.89      0.00
   18    5    2      0.65      0.00
   19    5    2     -0.52      0.00
   20    5    2      2.15      0.00
   21    5    2      4.23      0.00
   22    5    2     -1.93      0.00
  -21    6    2     -2.39      0.00
  -20    6    2     -3.37      0.00
  -19    6    2      1.69      0.00
  -18    6    2     -0.42      0.00
  -17    6    2      2.53      0.00
  -16    6    2      0.13      0.00
  -15    6    2     -1.11      0.00
  -14    6    2     -0.28      0.00
  -13    6    2      2.11      0.00
  -12    6    2     -1.38      0.00
  -11    6    2      0.28      0.00
  -10    6    2     -0.02      0.00
   -9    6    2     -0.17      0.00
   -8    6    2     -0.13      0.00
   -7    6    2     -0.89      0.00
   -6    6    2     -2.52      0.00
   -5    6    2      1.61      0.00
   -4    6    2     -0.44      0.00
   -3    6    2     -0.33      0.00
   -2    6    2     -1.15      0.00
   -1    6    2     -0.40      0.00
    0    6    2     -2.20      0.00
    1    6    2      2.08      0.00
    2    6    2     -0.32      0.00
    3    6    2      2.10      0.00
    4    6    2     -1.71      0.00
    5    6    2     -1.75      0.00
    6    6    2     -1.87      0.00
    7    6    2     -0.93      0.00
    8    6    2     -0.01      0.00
    9    6    2      0.68      0.00
   10    6    2     -0.84      0.00
   11    6    2     -1.16      0.00
   12    6    2      2.09      0.00
   13    6    2      1.06      0.00
   14    6    2     -0.23      0.00
   15    6    2      0.49      0.00
   16    6    2     -0.96      0.00
   17    6    2      1.29      0.00
   18    6    2      1.10      0.00
   19    6    2      1.44      0.00
   20    6    2     -0.26      0.00
   21    6    2     -1.08      0.00
  -19    7    2      7.41      0.00
  -18    7    2     -2.37      0.00
  -17    7    2     -4.28      0.00
  -16    7    2      2.80      0.00
  -15    7    2     -0.63      0.00
  -14    7    2     -2.10      0.00
  -13    7    2     -0.67      0.00
  -12    7    2      0.26      0.00
  -11    7    2     -1.99      0.00
  -10    7    2      0.73      0.00
   -9    7    2     -1.63      0.00
   -8    7    2      1.15      0.00
   -7    7    2     -4.91      0.00
   -6    7    2      1.87      0.00
   -5    7    2     -1.55      0.00
   -4    7    2      0.49      0.00
   -3    7    2     -0.66      0.00
   -2    7    2     -0.12      0.00
   -1    7    2     -3.58      0.00
    0    7    2     -0.33      0.00
    1    7    2     -2.99      0.00
    2    7    2     -0.76      0.00
    3    7    2      1.14      0.00
    4    7    2      2.61      0.00
    5    7    2     -4.60      0.00
    6    7    2     -0.42      0.00
    7    7    2     -0.70      0.00
    8    7    2      0.21      0.00
    9    7    2      0.13      0.00
   10    7    2      1.87      0.00
   11    7    2     -3.99      0.00
   12    7    2     -1.00      0.00
   13    7    2      5.06      0.00
   14    7    2     -0.06      0.00
   15    7    2      1.68      0.00
   16    7    2      0.64      0.00
   17    7    2     -0.38      0.00
   18    7    2      0.37      0.00
  -16    8    2      1.49      0.00
  -15    8    2      1.45      0.00
  -14    8    2      0.56      0.00
  -13    8    2     -5.90      0.00
  -12    8    2     -1.67      0.00
  -11    8    2      0.13      0.00
  -10    8    2      2.25      0.00
   -9    8    2      3.15      0.00
   -8    8    2     -1.47      0.00
   -7    8    2      1.89      0.00
   -6    8    2      2.11      0.00
   -5    8    2     -4.31      0.00
   -4    8    2     -1.57      0.00
   -3    8    2     -0.08      0.00
   -2    8    2      0.39      0.00
   -1    8    2     -3.21      0.00
    0    8    2     -2.66      0.00
    1    8    2      1.75      0.00
    2    8    2     -0.38      0.00
    3    8    2      1.48      0.00
    4    8    2     -3.01      0.00
    5    8    2     -3.51      0.00
    6    8    2      3.87      0.00
    7    8    2      4.39      0.00
    8    8    2     -3.25      0.00
    9    8    2     -2.04      0.00
   10    8    2      0.03      0.00
   11    8    2      2.12      0.00
   12    8    2      5.09      0.00
   13    8    2      0.60      0.00
   14    8    2      2.13      0.00
   15    8    2     -0.53      0.00
   16    8    2     -5.71      0.00
  -12    9    2     -6.41      0.00
  -11    9    2      2.23      0.00
  -10    9    2      0.87      0.00
   -9    9    2      2.65      0.00
   -8    9    2     -0.23      0.00
   -7    9    2     -0.38      0.00
   -6    9    2      4.05      0.00
   -5    9    2     -1.85      0.00
   -4    9    2     -7.39      0.00
   -3    9    2     -0.53      0.00
   -2    9    2      5.52      0.00
   -1    9    2     -0.31      0.00
    0    9    2     -2.60      0.00
    1    9    2     -0.68      0.00
    2    9    2      1.44      0.00
    3    9    2      0.19      0.00
    4    9    2     -0.66      0.00
    5    9    2     -3.22      0.00
    6    9    2     -5.99      0.00
    7    9    2     -4.08      0.00
    8    9    2      4.07      0.00
    9    9    2     -1.41      0.00
   10    9    2      1.46      0.00
   11    9    2      0.39      0.00
   12    9    2     -4.58      0.00
   -5   10    2     -5.03      0.00
   -4   10    2      1.72      0.00
   -3   10    2      1.31      0.00
   -2   10    2     -1.51      0.00
   -1   10    2      0.95      0.00
    0   10    2     -2.59      0.00
    1   10    2      0.63      0.00
    2   10    2     -1.81      0.00
    3   10    2     -1.39      0.00
    4   10    2      1.85      0.00
  -27    0    3     -1.36      0.00
  -25    0    3      1.61      0.00
  -23    0    3      1.48      0.00
  -21    0    3     -2.43      0.00
  -19    0    3     -1.71      0.00
  -17    0    3     -3.17      0.00
  -15    0    3     -4.96      0.00
  -13    0    3     -2.68      0.00
  -11    0    3      3.09      0.00
   -9    0    3      7.98      0.00
   -7    0    3      7.41      0.00
   -5    0    3     14.49      0.00
   -3    0    3     -7.65      0.00
   -1    0    3   -236.78      0.00
    1    0    3    -33.21      0.00
    3    0    3     44.52      0.00
    5    0    3     27.39      0.00
    7    0    3      0.93      0.00
    9    0    3      7.96      0.00
   11    0    3      8.84      0.00
   13    0    3     -1.84      0.00
   15    0    3     -4.42      0.00
   17    0    3     -0.19      0.00
   19    0    3     -2.11      0.00
   21    0    3     -1.32      0.00
   23    0    3      2.11      0.00
   25    0    3      0.09      0.00
  -26    1    3     -0.51      0.00
  -25    1    3     -0.14      0.00
  -24    1    3      0.13      0.00
  -23    1    3     -2.92      0.00
  -22    1    3      1.79      0.00
  -21    1    3      2.04      0.00
  -20    1    3     -0.31      0.00
  -19    1    3      0.49      0.00
  -18    1    3     -1.49      0.00
  -17    1    3      2.49      0.00
  -16    1    3     -0.19      0.00
  -15    1    3     -0.91      0.00
  -14    1    3     -0.60      0.00
  -13    1    3     -0.89      0.00
  -12    1    3      0.41      0.00
  -11    1    3      3.54      0.00
  -10    1    3      1.03      0.00
   -9    1    3      1.91      0.00
   -8    1    3      5.24      0.00
   -7    1    3     -3.13      0.00
   -6    1    3      9.62      0.00
   -5    1    3    -17.75      0.00
   -4    1    3    -20.45      0.00
   -3    1    3     13.06      0.00
   -2    1    3    -42.53      0.00
   -1    1    3    -40.04      0.00
    0    1    3    -37.83      0.00
    1    1    3     82.75      0.00
    2    1    3    -23.85      0.00
    3    1    3     21.23      0.00
    4    1    3     15.54      0.00
    5    1    3     20.53      0.00
    6    1    3     -6.22      0.00
    7    1    3     -6.63      0.00
    8    1    3     -3.91      0.00
    9    1    3      3.36      0.00
   10    1    3     -0.04      0.00
   11    1    3     -3.29      0.00
   12    1    3      0.38      0.00
   13    1    3     -1.28      0.00
   14    1    3     -1.37      0.00
   15    1    3     -1.72      0.00
   16    1    3     -3.11      0.00
   17    1    3     -0.24      0.00
   18    1    3     -2.75      0.00
   19    1    3      0.77      0.00
   20    1    3     -0.48      0.00
   21    1    3     -1.20      0.00
   22    1    3      1.76      0.00
   23    1    3     -0.03      0.00
   24    1    3      2.55      0.00
   25    1    3     -2.26      0.00
  -26    2    3     -0.56      0.00
  -25    2    3     -0.54      0.00
  -24    2    3     -0.45      0.00
  -23    2    3      2.49      0.00
  -22    2    3      0.34      0.00
  -21    2    3     -0.21      0.00
  -20    2    3     -0.84      0.00
  -19    2    3      0.33      0.00
  -18    2    3     -0.70      0.00
  -17    2    3     -0.92      0.00
  -16    2    3     -0.60      0.00
  -15    2    3      0.36      0.00
  -14    2    3     -2.51      0.00
  -13    2    3     -0.56      0.00
  -12    2    3     -1.88      0.00
  -11    2    3      0.42      0.00
  -10    2    3      2.92      0.00
   -9    2    3      1.43      0.00
   -8    2    3     -1.63      0.00
   -7    2    3     -2.57      0.00
   -6    2    3     -6.38      0.00
   -5    2    3      3.47      0.00
   -4    2    3    -24.78      0.00
   -3    2    3      1.36      0.00
   -2    2    3    -11.05      0.00
   -1    2    3    -22.70      0.00
    0    2    3    -18.48      0.00
    1    2    3     -2.82      0.00
    2    2    3      0.78      0.00
    3    2    3      2.61      0.00
    4    2    3     -6.04      0.00
    5    2    3     -3.91      0.00
    6    2    3     -5.42      0.00
    7    2    3     -5.48      0.00
    8    2    3     -1.44      0.00
    9    2    3     -2.56      0.00
   10    2    3     -3.36      0.00
   11    2    3      2.56      0.00
   12    2    3      0.91      0.00
   13    2    3      1.92      0.00
   14    2    3      0.98      0.00
   15    2    3     -1.08      0.00
   16    2    3      1.93      0.00
   17    2    3      0.62      0.00
   18    2    3     -0.94      0.00
   19    2    3      0.39      0.00
   20    2    3      1.08      0.00
   21    2    3     -2.58      0.00
   22    2    3     -1.32      0.00
   23    2    3     -3.72      0.00
   24    2    3      0.78      0.00
   25    2    3      1.49      0.00
  -25    3    3     -2.21      0.00
  -24    3    3     -1.77      0.00
  -23    3    3     -0.01      0.00
  -22    3    3     -0.92      0.00
  -21    3    3      2.53      0.00
  -20    3    3     -3.09      0.00
  -19    3    3     -1.97      0.00
  -18    3    3     -2.66      0.00
  -17    3    3     -0.33      0.00
  -16    3    3      1.77      0.00
  -15    3    3     -1.29      0.00
  -14    3    3     -0.68      0.00
  -13    3    3     -0.52      0.00
  -12    3    3      1.16      0.00
  -11    3    3     -1.13      0.00
  -10    3    3      0.78      0.00
   -9    3    3      4.33      0.00
   -8    3    3     -0.10      0.00
   -7    3    3     -0.75      0.00
   -6    3    3     -1.77      0.00
   -5    3    3      3.68      0.00
   -4    3    3     -8.35      0.00
   -3    3    3     -3.61      0.00
   -2    3    3     -7.02      0.00
   -1    3    3      6.88      0.00
    0    3    3    -10.81      0.00
    1    3    3     -0.53      0.00
    2    3    3     -1.56      0.00
    3    3    3      1.93      0.00
    4    3    3      0.97      0.00
    5    3    3     -0.63      0.00
    6    3    3      5.67      0.00
    7    3    3     -4.83      0.00
    8    3    3      2.63      0.00
    9    3    3     -3.21      0.00
   10    3    3      4.36      0.00
   11    3    3      3.66      0.00
   12    3    3      2.40      0.00
   13    3    3      2.80      0.00
   14    3    3     -0.43      0.00
   15    3    3     -0.34      0.00
   16    3    3      1.23      0.00
   17    3    3     -0.90      0.00
   18    3    3     -1.02      0.00
   19    3    3     -2.93      0.00
   20    3    3     -1.08      0.00
   21    3    3     -2.27      0.00
   22    3    3     -0.92      0.00
   23    3    3      1.56      0.00
   24    3    3      2.90      0.00
  -24    4    3      2.43      0.00
  -23    4    3     -0.83      0.00
  -22    4    3      1.97      0.00
  -21    4    3      1.24      0.00
  -20    4    3     -1.22      0.00
  -19    4    3      2.57      0.00
  -18    4    3      1.23      0.00
  -17    4    3     -1.53      0.00
  -16    4    3     -1.84      0.00
  -15    4    3      2.38      0.00
  -14    4    3      0.37      0.00
  -13    4    3     -0.10      0.00
  -12    4    3     -0.34      0.00
  -11    4    3      2.67      0.00
  -10    4    3     -1.62      0.00
   -9    4    3      4.69      0.00
   -8    4    3      1.14      0.00
   -7    4    3      2.49      0.00
   -6    4    3     -5.13      0.00
   -5    4    3      2.43      0.00
   -4    4    3     -0.46      0.00
   -3    4    3     -2.48      0.00
   -2    4    3      0.38      0.00
   -1    4    3     -4.20      0.00
    0    4    3      0.23      0.00
    1    4    3     -4.75      0.00
    2    4    3      1.76      0.00
    3    4    3     -0.07      0.00
    4    4    3      0.10      0.00
    5    4    3     -3.57      0.00
    6    4    3     -1.77      0.00
    7    4    3     -0.08      0.00
    8    4    3     -0.09      0.00
    9    4    3      2.02      0.00
   10    4    3     -1.01      0.00
   11    4    3      2.84      0.00
   12    4    3     -1.54      0.00
   13    4    3      2.32      0.00
   14    4    3      0.22      0.00
   15    4    3     -0.01      0.00
   16    4    3     -0.87      0.00
   17    4    3      0.19      0.00
   18    4    3     -1.27      0.00
   19    4    3      0.89      0.00
   20    4    3     -0.09      0.00
   21    4    3      1.29      0.00
   22    4    3      4.13      0.00
   23    4    3     -0.98      0.00
  -23    5    3     -2.87      0.00
  -22    5    3     -3.64      0.00
  -21    5    3      4.09      0.00
  -20    5    3      1.71      0.00
  -19    5    3     -2.00      0.00
  -18    5    3      0.46      0.00
  -17    5    3     -1.86      0.00
  -16    5    3     -0.49      0.00
  -15    5    3     -2.58      0.00
  -14    5    3      0.51      0.00
  -13    5    3      0.39      0.00
  -12    5    3      0.85      0.00
  -11    5    3      1.21      0.00
  -10    5    3      1.75      0.00
   -9    5    3     -0.78      0.00
   -8    5    3      2.16      0.00
   -7    5    3     -2.62      0.00
   -6    5    3      2.31      0.00
   -5    5    3     -3.07      0.00
   -4    5    3      2.46      0.00
   -3    5    3     -0.66      0.00
   -2    5    3      0.24      0.00
   -1    5    3      0.04      0.00
    0    5    3      1.41      0.00
    1    5    3     -0.75      0.00
    2    5    3      1.29      0.00
    3    5    3     -2.12      0.00
    4    5    3      0.65      0.00
    5    5    3     -1.49      0.00
    6    5    3      1.65      0.00
    7    5    3     -1.45      0.00
    8    5    3     -0.54      0.00
    9    5    3      2.41      0.00
   10    5    3      0.96      0.00
   11    5    3     -1.06      0.00
   12    5    3      0.15      0.00
   13    5    3     -3.11      0.00
   14    5    3     -1.28      0.00
   15    5    3     -0.19      0.00
   16    5    3      1.49      0.00
   17    5    3      1.52      0.00
   18    5    3      3.14      0.00
   19    5    3      0.82      0.00
   20    5    3      3.11      0.00
   21    5    3     -0.21      0.00
   22    5    3     -0.57      0.00
  -21    6    3     -4.04      0.00
  -20    6    3      5.25      0.00
  -19    6    3     -0.78      0.00
  -18    6    3      1.06      0.00
  -17    6    3      1.64      0.00
  -16    6    3     -3.49      0.00
  -15    6    3     -0.69      0.00
  -14    6    3      0.55      0.00
  -13    6    3     -1.52      0.00
  -12    6    3     -2.93      0.00
  -11    6    3      1.10      0.00
  -10    6    3     -0.20      0.00
   -9    6    3      1.32      0.00
   -8    6    3     -0.43      0.00
   -7    6    3      0.93      0.00
   -6    6    3      1.22      0.00
   -5    6    3      2.93      0.00
   -4    6    3      0.08      0.00
   -3    6    3      0.88      0.00
   -2    6    3      0.91      0.00
   -1    6    3      0.32      0.00
    0    6    3      1.10      0.00
    1    6    3      2.46      0.00
    2    6    3      0.82      0.00
    3    6    3      1.44      0.00
    4    6    3     -1.66      0.00
    5    6    3      0.86      0.00
    6    6    3     -1.24      0.00
    7    6    3      1.21      0.00
    8    6    3      0.12      0.00
    9    6    3     -0.14      0.00
   10    6    3     -0.07      0.00
   11    6    3      0.77      0.00
   12    6    3      0.63      0.00
   13    6    3     -0.80      0.00
   14    6    3      1.96      0.00
   15    6    3     -0.91      0.00
   16    6    3      0.88      0.00
   17    6    3      1.17      0.00
   18    6    3      0.65      0.00
   19    6    3     -1.10      0.00
   20    6    3     -0.98      0.00
  -19    7    3     -2.94      0.00
  -18    7    3     -6.61      0.00
  -17    7    3      1.56      0.00
  -16    7    3     -0.50      0.00
  -15    7    3     -1.68      0.00
  -14    7    3      0.95      0.00
  -13    7    3      1.89      0.00
  -12    7    3      1.78      0.00
  -11    7    3      2.69      0.00
  -10    7    3     -0.40      0.00
   -9    7    3      2.12      0.00
   -8    7    3     -1.46      0.00
   -7    7    3      0.10      0.00
   -6    7    3      5.11      0.00
   -5    7    3      0.29      0.00
   -4    7    3      1.11      0.00
   -3    7    3     -0.94      0.00
   -2    7    3     -1.47      0.00
   -1    7    3     -1.89      0.00
    0    7    3     -0.54      0.00
    1    7    3     -1.32      0.00
    2    7    3      2.54      0.00
    3    7    3      1.81      0.00
    4    7    3     -0.25      0.00
    5    7    3      0.15      0.00
    6    7    3      2.80      0.00
    7    7    3      0.33      0.00
    8    7    3      2.99      0.00
    9    7    3      0.97      0.00
   10    7    3     -0.21      0.00
   11    7    3     -1.25      0.00
   12    7    3      4.76      0.00
   13    7    3     -1.98      0.00
   14    7    3     -1.83      0.00
   15    7    3     -0.45      0.00
   16    7    3     -2.07      0.00
   17    7    3     -4.18      0.00
   18    7    3     -0.55      0.00
  -16    8    3      2.22      0.00
  -15    8    3     -4.82      0.00
  -14    8    3     -2.20      0.00
  -13    8    3     -3.98      0.00
  -12    8    3      5.15      0.00
  -11    8    3      1.02      0.00
  -10    8    3      2.25      0.00
   -9    8    3     -1.14      0.00
   -8    8    3      1.41      0.00
   -7    8    3      3.35      0.00
   -6    8    3     -2.45      0.00
   -5    8    3      0.09      0.00
   -4    8    3      3.06      0.00
   -3    8    3     -0.17      0.00
   -2    8    3     -0.04      0.00
   -1    8    3     -1.65      0.00
    0    8    3      3.03      0.00
    1    8    3     -0.72      0.00
    2    8    3      1.47      0.00
    3    8    3      1.24      0.00
    4    8    3     -3.94      0.00
    5    8    3      4.47      0.00
    6    8    3      2.94      0.00
    7    8    3     -4.33      0.00
    8    8    3     -4.80      0.00
    9    8    3      1.92      0.00
   10    8    3      1.16      0.00
   11    8    3      4.92      0.00
   12    8    3     -3.10      0.00
   13    8    3     -3.71      0.00
   14    8    3     -1.77      0.00
   15    8    3     -6.91      0.00
  -12    9    3      3.76      0.00
  -11    9    3      3.61      0.00
  -10    9    3      3.88      0.00
   -9    9    3     -1.38      0.00
   -8    9    3      2.74      0.00
   -7    9    3      1.43      0.00
   -6    9    3      0.69      0.00
   -5    9    3     -5.90      0.00
   -4    9    3     -0.27      0.00
   -3    9    3      5.58      0.00
   -2    9    3      0.01      0.00
   -1    9    3     -7.16      0.00
    0    9    3     -0.03      0.00
    1    9    3      0.25      0.00
    2    9    3      0.64      0.00
    3    9    3     -4.22      0.00
    4    9    3      0.62      0.00
    5    9    3     -1.65      0.00
    6    9    3      0.02      0.00
    7    9    3      5.06      0.00
    8    9    3      3.20      0.00
    9    9    3     -1.33      0.00
   10    9    3      0.19      0.00
   11    9    3     -5.53      0.00
   -5   10    3      4.99      0.00
   -4   10    3      2.80      0.00
   -3   10    3     -0.18      0.00
   -2   10    3      0.33      0.00
   -1   10    3     -1.98      0.00
    0   10    3     -0.51      0.00
    1   10    3      0.58      0.00
    2   10    3     -2.26      0.00
    3   10    3      1.13      0.00
    4   10    3      1.25      0.00
  -26    0    4      0.52      0.00
  -24    0    4      2.38      0.00
  -22    0    4     -1.28      0.00
  -20    0    4      1.07      0.00
  -18    0    4     -0.69      0.00
  -16    0    4      1.59      0.00
  -14    0    4     -0.46      0.00
  -12    0    4      0.42      0.00
  -10    0    4      5.01      0.00
   -8    0    4      2.42      0.00
   -6    0    4     10.90      0.00
   -4    0    4      9.05      0.00
   -2    0    4     -8.63      0.00
    0    0    4     77.50      0.00
    2    0    4     90.28      0.00
    4    0    4     24.10      0.00
    6    0    4    -13.30      0.00
    8    0    4     -3.31      0.00
   10    0    4      4.16      0.00
   12    0    4     -2.48      0.00
   14    0    4      1.09      0.00
   16    0    4      2.30      0.00
   18    0    4     -0.76      0.00
   20    0    4     -2.07      0.00
   22    0    4      1.13      0.00
   24    0    4      0.58      0.00
  -27    1    4      0.75      0.00
  -26    1    4      2.42      0.00
  -25    1    4     -0.71      0.00
  -24    1    4     -0.13      0.00
  -23    1    4      0.50      0.00
  -22    1    4      5.07      0.00
  -21    1    4      0.30      0.00
  -20    1    4      0.87      0.00
  -19    1    4      0.35      0.00
  -18    1    4      2.58      0.00
  -17    1    4      0.92      0.00
  -16    1    4     -0.89      0.00
  -15    1    4     -0.23      0.00
  -14    1    4      1.57      0.00
  -13    1    4     -1.67      0.00
  -12    1    4      4.90      0.00
  -11    1    4     -4.63      0.00
  -10    1    4      1.69      0.00
   -9    1    4     -2.92      0.00
   -8    1    4     -1.36      0.00
   -7    1    4     -1.47      0.00
   -6    1    4     -6.63      0.00
   -5    1    4     -5.67      0.00
   -4    1    4     16.36      0.00
   -3    1    4      7.84      0.00
   -2    1    4    -10.95      0.00
   -1    1    4     28.98      0.00
    0    1    4     52.38      0.00
    1    1    4     19.92      0.00
    2    1    4      2.88      0.00
    3    1    4     19.73      0.00
    4    1    4      2.11      0.00
    5    1    4    -14.79      0.00
    6    1    4    -14.38      0.00
    7    1    4     -7.30      0.00
    8    1    4      1.82      0.00
    9    1    4     -1.60      0.00
   10    1    4     -5.31      0.00
   11    1    4      1.68      0.00
   12    1    4     -1.96      0.00
   13    1    4      2.99      0.00
   14    1    4     -1.33      0.00
   15    1    4      2.32      0.00
   16    1    4     -0.04      0.00
   17    1    4      1.81      0.00
   18    1    4     -0.66      0.00
   19    1    4      1.98      0.00
   20    1    4     -1.27      0.00
   21    1    4      1.46      0.00
   22    1    4      0.27      0.00
   23    1    4      2.54      0.00
   24    1    4     -2.73      0.00
   25    1    4     -3.64      0.00
  -26    2    4      2.89      0.00
  -25    2    4      1.20      0.00
  -24    2    4     -0.61      0.00
  -23    2    4      0.83      0.00
  -22    2    4     -0.15      0.00
  -21    2    4     -1.71      0.00
  -20    2    4      2.51      0.00
  -19    2    4      0.02      0.00
  -18    2    4     -0.36      0.00
  -17    2    4      1.46      0.00
  -16    2    4      0.31      0.00
  -15    2    4      0.55      0.00
  -14    2    4     -1.59      0.00
  -13    2    4      1.89      0.00
  -12    2    4     -3.90      0.00
  -11    2    4      4.62      0.00
  -10    2    4     -3.69      0.00
   -9    2    4     -1.27      0.00
   -8    2    4     -2.90      0.00
   -7    2    4     -1.85      0.00
   -6    2    4      1.35      0.00
   -5    2    4     -4.94      0.00
   -4    2    4     21.29      0.00
   -3    2    4      9.84      0.00
   -2    2    4     10.66      0.00
   -1    2    4      2.18      0.00
    0    2    4     30.57      0.00
    1    2    4      8.09      0.00
    2    2    4      5.39      0.00
    3    2    4     -0.81      0.00
    4    2    4     -6.10      0.00
    5    2    4      1.47      0.00
    6    2    4    -11.17      0.00
    7    2    4      5.72      0.00
    8    2    4     -4.75      0.00
    9    2    4      3.21      0.00
   10    2    4      1.42      0.00
   11    2    4      5.37      0.00
   12    2    4      4.37      0.00
   13    2    4      2.91      0.00
   14    2    4      1.21      0.00
   15    2    4      1.63      0.00
   16    2    4      1.45      0.00
   17    2    4     -1.34      0.00
   18    2    4     -1.03      0.00
   19    2    4     -0.51      0.00
   20    2    4     -4.50      0.00
   21    2    4      1.01      0.00
   22    2    4     -1.63      0.00
   23    2    4     -1.21      0.00
   24    2    4      3.76      0.00
   25    2    4     -2.73      0.00
  -25    3    4     -1.81      0.00
  -24    3    4      0.45      0.00
  -23    3    4     -0.09      0.00
  -22    3    4      3.76      0.00
  -21    3    4      0.15      0.00
  -20    3    4     -1.85      0.00
  -19    3    4      1.92      0.00
  -18    3    4      2.16      0.00
  -17    3    4      4.42      0.00
  -16    3    4      1.51      0.00
  -15    3    4     -0.02      0.00
  -14    3    4      1.92      0.00
  -13    3    4     -0.42      0.00
  -12    3    4      1.08      0.00
  -11    3    4     -2.66      0.00
  -10    3    4      4.24      0.00
   -9    3    4     -3.80      0.00
   -8    3    4      0.28      0.00
   -7    3    4      0.84      0.00
   -6    3    4      2.86      0.00
   -5    3    4      1.05      0.00
   -4    3    4     -2.17      0.00
   -3    3    4     12.27      0.00
   -2    3    4      3.45      0.00
   -1    3    4     12.55      0.00
    0    3    4     -3.97      0.00
    1    3    4     14.35      0.00
    2    3    4     -3.11      0.00
    3    3    4      4.09      0.00
    4    3    4     -2.24      0.00
    5    3    4      1.01      0.00
    6    3    4     -3.70      0.00
    7    3    4     -4.45      0.00
    8    3    4      1.37      0.00
    9    3    4     -1.43      0.00
   10    3    4      7.39      0.00
   11    3    4      0.78      0.00
   12    3    4      4.15      0.00
   13    3    4      0.33      0.00
   14    3    4      0.65      0.00
   15    3    4      3.44      0.00
   16    3    4      0.12      0.00
   17    3    4     -1.25      0.00
   18    3    4     -2.15      0.00
   19    3    4     -0.16      0.00
   20    3    4     -0.63      0.00
   21    3    4     -1.53      0.00
   22    3    4      2.15      0.00
   23    3    4      5.40      0.00
   24    3    4     -0.11      0.00
  -25    4    4      0.97      0.00
  -24    4    4     -1.22      0.00
  -23    4    4      1.97      0.00
  -22    4    4      1.76      0.00
  -21    4    4     -1.81      0.00
  -20    4    4      3.08      0.00
  -19    4    4      1.68      0.00
  -18    4    4     -1.23      0.00
  -17    4    4      0.60      0.00
  -16    4    4      2.24      0.00
  -15    4    4      2.48      0.00
  -14    4    4     -2.98      0.00
  -13    4    4      1.00      0.00
  -12    4    4     -1.16      0.00
  -11    4    4      2.10      0.00
  -10    4    4     -2.00      0.00
   -9    4    4      3.60      0.00
   -8    4    4     -3.48      0.00
   -7    4    4      0.16      0.00
   -6    4    4     -2.40      0.00
   -5    4    4      5.84      0.00
   -4    4    4     -3.85      0.00
   -3    4    4      3.91      0.00
   -2    4    4      2.43      0.00
   -1    4    4      0.11      0.00
    0    4    4     -2.34      0.00
    1    4    4      0.52      0.00
    2    4    4      0.28      0.00
    3    4    4     -1.26      0.00
    4    4    4     -6.10      0.00
    5    4    4     -1.27      0.00
    6    4    4     -3.31      0.00
    7    4    4      0.99      0.00
    8    4    4     -2.50      0.00
    9    4    4      0.92      0.00
   10    4    4      0.32      0.00
   11    4    4      0.34      0.00
   12    4    4      1.45      0.00
   13    4    4      1.42      0.00
   14    4    4     -0.46      0.00
   15    4    4     -0.02      0.00
   16    4    4     -1.68      0.00
   17    4    4     -1.45      0.00
   18    4    4     -0.41      0.00
   19    4    4      1.79      0.00
   20    4    4     -0.39      0.00
   21    4    4      2.03      0.00
   22    4    4     -2.02      0.00
   23    4    4      1.22      0.00
  -23    5    4     -2.34      0.00
  -22    5    4      6.86      0.00
  -21    5    4      4.96      0.00
  -20    5    4     -0.76      0.00
  -19    5    4      0.15      0.00
  -18    5    4     -0.67      0.00
  -17    5    4     -1.88      0.00
  -16    5    4     -1.80      0.00
  -15    5    4     -0.58      0.00
  -14    5    4      1.68      0.00
  -13    5    4      0.42      0.00
  -12    5    4      1.10      0.00
  -11    5    4     -1.23      0.00
  -10    5    4     -1.92      0.00
   -9    5    4      0.13      0.00
   -8    5    4     -1.47      0.00
   -7    5    4     -1.06      0.00
   -6    5    4     -1.07      0.00
   -5    5    4      0.37      0.00
   -4    5    4      1.85      0.00
   -3    5    4     -0.54      0.00
   -2    5    4      0.25      0.00
   -1    5    4      0.81      0.00
    0    5    4      0.00      0.00
    1    5    4      0.11      0.00
    2    5    4     -0.45      0.00
    3    5    4     -1.09      0.00
    4    5    4     -0.22      0.00
    5    5    4     -1.67      0.00
    6    5    4      0.06      0.00
    7    5    4     -2.91      0.00
    8    5    4      2.36      0.00
    9    5    4     -0.60      0.00
   10    5    4     -0.55      0.00
   11    5    4     -0.40      0.00
   12    5    4     -2.02      0.00
   13    5    4     -1.16      0.00
   14    5    4      0.71      0.00
   15    5    4      0.85      0.00
   16    5    4      2.09      0.00
   17    5    4      1.83      0.00
   18    5    4      0.71      0.00
   19    5    4      0.27      0.00
   20    5    4      1.41      0.00
   21    5    4     -1.33      0.00
   22    5    4     -0.77      0.00
  -22    6    4     -2.79      0.00
  -21    6    4      4.91      0.00
  -20    6    4     -0.51      0.00
  -19    6    4     -0.47      0.00
  -18    6    4      3.03      0.00
  -17    6    4      0.85      0.00
  -16    6    4     -1.80      0.00
  -15    6    4      3.17      0.00
  -14    6    4     -1.41      0.00
  -13    6    4     -1.98      0.00
  -12    6    4      0.21      0.00
  -11    6    4      0.73      0.00
  -10    6    4     -0.92      0.00
   -9    6    4     -0.58      0.00
   -8    6    4     -1.06      0.00
   -7    6    4      1.22      0.00
   -6    6    4     -1.46      0.00
   -5    6    4      0.37      0.00
   -4    6    4     -2.12      0.00
   -3    6    4     -0.22      0.00
   -2    6    4     -1.67      0.00
   -1    6    4     -1.98      0.00
    0    6    4      0.32      0.00
    1    6    4     -0.74      0.00
    2    6    4     -1.16      0.00
    3    6    4     -2.50      0.00
    4    6    4     -1.04      0.00
    5    6    4     -1.23      0.00
    6    6    4     -0.25      0.00
    7    6    4      2.17      0.00
    8    6    4     -1.09      0.00
    9    6    4      2.40      0.00
   10    6    4     -1.06      0.00
   11    6    4      0.57      0.00
   12    6    4     -1.54      0.00
   13    6    4      1.91      0.00
   14    6    4     -3.23      0.00
   15    6    4     -1.45      0.00
   16    6    4     -0.19      0.00
   17    6    4     -0.73      0.00
   18    6    4     -1.98      0.00
   19    6    4     -0.99      0.00
   20    6    4      1.10      0.00
  -19    7    4     -5.96      0.00
  -18    7    4      2.48      0.00
  -17    7    4      0.65      0.00
  -16    7    4     -0.46      0.00
  -15    7    4      2.33      0.00
  -14    7    4      0.49      0.00
  -13    7    4      2.73      0.00
  -12    7    4     -0.25      0.00
  -11    7    4     -2.04      0.00
  -10    7    4     -0.96      0.00
   -9    7    4     -0.18      0.00
   -8    7    4     -3.01      0.00
   -7    7    4      3.42      0.00
   -6    7    4     -0.78      0.00
   -5    7    4     -4.39      0.00
   -4    7    4     -2.36      0.00
   -3    7    4     -2.23      0.00
   -2    7    4     -2.26      0.00
   -1    7    4     -1.00      0.00
    0    7    4      0.88      0.00
    1    7    4      0.84      0.00
    2    7    4      1.77      0.00
    3    7    4     -0.91      0.00
    4    7    4     -0.16      0.00
    5    7    4     -0.98      0.00
    6    7    4     -0.83      0.00
    7    7    4     -0.06      0.00
    8    7    4      0.78      0.00
    9    7    4     -2.43      0.00
   10    7    4     -0.20      0.00
   11    7    4      0.74      0.00
   12    7    4     -1.06      0.00
   13    7    4     -1.77      0.00
   14    7    4      1.18      0.00
   15    7    4     -2.16      0.00
   16    7    4     -2.86      0.00
   17    7    4      0.43      0.00
   18    7    4      3.15      0.00
  -17    8    4      0.97      0.00
  -16    8    4     -5.22      0.00
  -15    8    4     -3.22      0.00
  -14    8    4     -1.81      0.00
  -13    8    4      2.45      0.00
  -12    8    4     -0.13      0.00
  -11    8    4     -1.63      0.00
  -10    8    4     -2.75      0.00
   -9    8    4      2.11      0.00
   -8    8    4     -0.84      0.00
   -7    8    4      0.12      0.00
   -6    8    4     -3.77      0.00
   -5    8    4      2.09      0.00
   -4    8    4     -2.52      0.00
   -3    8    4     -0.67      0.00
   -2    8    4     -0.53      0.00
   -1    8    4      2.77      0.00
    0    8    4     -1.58      0.00
    1    8    4      1.41      0.00
    2    8    4      1.66      0.00
    3    8    4     -4.29      0.00
    4    8    4     -0.66      0.00
    5    8    4      1.56      0.00
    6    8    4     -6.58      0.00
    7    8    4     -3.76      0.00
    8    8    4      0.86      0.00
    9    8    4      3.76      0.00
   10    8    4      1.54      0.00
   11    8    4     -3.36      0.00
   12    8    4     -5.19      0.00
   13    8    4     -0.70      0.00
   14    8    4     -1.10      0.00
   15    8    4      0.89      0.00
  -12    9    4      7.25      0.00
  -11    9    4      2.58      0.00
  -10    9    4      0.02      0.00
   -9    9    4      0.64      0.00
   -8    9    4      3.63      0.00
   -7    9    4     -5.06      0.00
   -6    9    4     -3.19      0.00
   -5    9    4     -4.40      0.00
   -4    9    4      5.34      0.00
   -3    9    4     -0.20      0.00
   -2    9    4     -5.95      0.00
   -1    9    4      0.29      0.00
    0    9    4      3.86      0.00
    1    9    4      0.13      0.00
    2    9    4     -3.18      0.00
    3    9    4      1.79      0.00
    4    9    4      1.83      0.00
    5    9    4      0.82      0.00
    6    9    4      3.02      0.00
    7    9    4      3.43      0.00
    8    9    4     -1.09      0.00
    9    9    4     -2.29      0.00
   10    9    4     -0.76      0.00
   11    9    4     -0.32      0.00
   -4   10    4     -1.37      0.00
   -3   10    4     -0.90      0.00
   -2   10    4     -0.75      0.00
   -1   10    4      1.98      0.00
    0   10    4      2.72      0.00
    1   10    4     -0.76      0.00
    2   10    4     -0.46      0.00
    3   10    4      3.28      0.00
  -27    0    5     -0.71      0.00
  -25    0    5      2.65      0.00
  -23    0    5     -2.66      0.00
  -21    0    5     -0.35      0.00
  -19    0    5     -2.02      0.00
  -17    0    5      2.53      0.00
  -15    0    5     -1.24      0.00
  -13    0    5      6.09      0.00
  -11    0    5     14.11      0.00
   -9    0    5      2.48      0.00
   -7    0    5     -6.67      0.00
   -5    0    5    -19.94      0.00
   -3    0    5    -11.49      0.00
   -1    0    5    -47.39      0.00
    1    0    5      4.03      0.00
    3    0    5     -5.54      0.00
    5    0    5    -14.00      0.00
    7    0    5      0.87      0.00
    9    0    5      4.29      0.00
   11    0    5     -8.03      0.00
   13    0    5     -4.11      0.00
   15    0    5     -3.61      0.00
   17    0    5     -2.89      0.00
   19    0    5     -1.24      0.00
   21    0    5      3.04      0.00
   23    0    5      1.06      0.00
   25    0    5     -4.26      0.00
  -27    1    5     -1.49      0.00
  -26    1    5     -1.67      0.00
  -25    1    5     -2.39      0.00
  -24    1    5     -0.69      0.00
  -23    1    5      3.77      0.00
  -22    1    5     -0.47      0.00
  -21    1    5     -1.51      0.00
  -20    1    5     -2.45      0.00
  -19    1    5      0.28      0.00
  -18    1    5     -1.74      0.00
  -17    1    5     -2.77      0.00
  -16    1    5     -0.88      0.00
  -15    1    5     -1.14      0.00
  -14    1    5      0.36      0.00
  -13    1    5      0.28      0.00
  -12    1    5      1.05      0.00
  -11    1    5     -3.92      0.00
  -10    1    5      4.92      0.00
   -9    1    5     -8.17      0.00
   -8    1    5      2.34      0.00
   -7    1    5    -10.71      0.00
   -6    1    5     -5.39      0.00
   -5    1    5      0.17      0.00
   -4    1    5    -14.47      0.00
   -3    1    5     -9.96      0.00
   -2    1    5    -19.23      0.00
   -1    1    5      2.40      0.00
    0    1    5    -27.04      0.00
    1    1    5     -1.28      0.00
    2    1    5     -7.10      0.00
    3    1    5     -8.82      0.00
    4    1    5    -10.00      0.00
    5    1    5    -15.58      0.00
    6    1    5      7.89      0.00
    7    1    5      0.50      0.00
    8    1    5      7.66      0.00
    9    1    5     -6.39      0.00
   10    1    5      4.02      0.00
   11    1    5     -1.97      0.00
   12    1    5     -0.32      0.00
   13    1    5      0.21      0.00
   14    1    5     -3.02      0.00
   15    1    5      0.29      0.00
   16    1    5     -2.56      0.00
   17    1    5      0.51      0.00
   18    1    5     -0.06      0.00
   19    1    5      0.45      0.00
   20    1    5      0.72      0.00
   21    1    5      1.95      0.00
   22    1    5      2.86      0.00
   23    1    5     -2.21      0.00
   24    1    5     -4.63      0.00
   25    1    5      3.53      0.00
  -26    2    5     -2.05      0.00
  -25    2    5     -4.88      0.00
  -24    2    5      0.81      0.00
  -23    2    5      0.53      0.00
  -22    2    5     -0.83      0.00
  -21    2    5      1.93      0.00
  -20    2    5      1.24      0.00
  -19    2    5     -3.81      0.00
  -18    2    5      0.18      0.00
  -17    2    5     -0.87      0.00
  -16    2    5     -0.77      0.00
  -15    2    5     -0.62      0.00
  -14    2    5      0.40      0.00
  -13    2    5     -0.28      0.00
  -12    2    5      0.03      0.00
  -11    2    5      3.48      0.00
  -10    2    5     -5.98      0.00
   -9    2    5      2.21      0.00
   -8    2    5     -4.04      0.00
   -7    2    5     -3.47      0.00
   -6    2    5      1.04      0.00
   -5    2    5      5.90      0.00
   -4    2    5     11.04      0.00
   -3    2    5    -22.00      0.00
   -2    2    5      6.63      0.00
   -1    2    5    -14.22      0.00
    0    2    5      7.71      0.00
    1    2    5    -25.10      0.00
    2    2    5      3.46      0.00
    3    2    5    -11.38      0.00
    4    2    5      1.16      0.00
    5    2    5     -4.01      0.00
    6    2    5      0.52      0.00
    7    2    5      6.39      0.00
    8    2    5     -2.39      0.00
    9    2    5      7.49      0.00
   10    2    5      0.18      0.00
   11    2    5      4.46      0.00
   12    2    5     -0.80      0.00
   13    2    5     -1.84      0.00
   14    2    5     -2.28      0.00
   15    2    5     -1.96      0.00
   16    2    5     -2.70      0.00
   17    2    5     -2.18      0.00
   18    2    5     -0.80      0.00
   19    2    5     -1.23      0.00
   20    2    5      2.39      0.00
   21    2    5      3.24      0.00
   22    2    5     -2.88      0.00
   23    2    5      2.67      0.00
   24    2    5      0.11      0.00
   25    2    5     -0.52      0.00
  -26    3    5     -2.52      0.00
  -25    3    5     -0.04      0.00
  -24    3    5      0.46      0.00
  -23    3    5      2.94      0.00
  -22    3    5      0.77      0.00
  -21    3    5     -4.16      0.00
  -20    3    5     -0.41      0.00
  -19    3    5      0.84      0.00
  -18    3    5     -0.11      0.00
  -17    3    5     -0.38      0.00
  -16    3    5     -1.99      0.00
  -15    3    5     -1.44      0.00
  -14    3    5      0.55      0.00
  -13    3    5     -3.95      0.00
  -12    3    5      1.57      0.00
  -11    3    5     -1.38      0.00
  -10    3    5      2.10      0.00
   -9    3    5     -4.46      0.00
   -8    3    5      5.35      0.00
   -7    3    5     -3.84      0.00
   -6    3    5     -0.09      0.00
   -5    3    5     -6.45      0.00
   -4    3    5      0.95      0.00
   -3    3    5     -5.35      0.00
   -2    3    5     -6.62      0.00
   -1    3    5     -7.65      0.00
    0    3    5     -7.66      0.00
    1    3    5     -6.03      0.00
    2    3    5     -9.06      0.00
    3    3    5     -1.18      0.00
    4    3    5     -2.77      0.00
    5    3    5     -3.29      0.00
    6    3    5     -0.78      0.00
    7    3    5      0.66      0.00
    8    3    5      3.28      0.00
    9    3    5      2.27      0.00
   10    3    5      1.46      0.00
   11    3    5     -1.23      0.00
   12    3    5     -1.59      0.00
   13    3    5     -3.66      0.00
   14    3    5      0.63      0.00
   15    3    5     -1.64      0.00
   16    3    5     -2.70      0.00
   17    3    5     -1.23      0.00
   18    3    5     -0.49      0.00
   19    3    5      0.55      0.00
   20    3    5     -0.37      0.00
   21    3    5      1.98      0.00
   22    3    5      4.20      0.00
   23    3    5      1.00      0.00
   24    3    5     -4.01      0.00
  -25    4    5      0.21      0.00
  -24    4    5      1.24      0.00
  -23    4    5      2.58      0.00
  -22    4    5     -3.68      0.00
  -21    4    5      0.40      0.00
  -20    4    5      0.06      0.00
  -19    4    5     -4.22      0.00
  -18    4    5     -0.63      0.00
  -17    4    5      0.29      0.00
  -16    4    5     -1.68      0.00
  -15    4    5     -2.71      0.00
  -14    4    5     -2.24      0.00
  -13    4    5      2.53      0.00
  -12    4    5      0.05      0.00
  -11    4    5      2.29      0.00
  -10    4    5     -1.45      0.00
   -9    4    5      0.83      0.00
   -8    4    5     -2.96      0.00
   -7    4    5     -0.31      0.00
   -6    4    5     -0.07      0.00
   -5    4    5     -2.06      0.00
   -4    4    5     -2.09      0.00
   -3    4    5      2.60      0.00
   -2    4    5     -3.87      0.00
   -1    4    5     -5.66      0.00
    0    4    5     -0.65      0.00
    1    4    5      1.50      0.00
    2    4    5     -1.58      0.00
    3    4    5     -1.04      0.00
    4    4    5     -1.36      0.00
    5    4    5      4.26      0.00
    6    4    5     -1.04      0.00
    7    4    5      4.72      0.00
    8    4    5     -1.74      0.00
    9    4    5      3.59      0.00
   10    4    5     -1.91      0.00
   11    4    5      1.23      0.00
   12    4    5     -0.54      0.00
   13    4    5     -0.92      0.00
   14    4    5     -1.56      0.00
   15    4    5     -0.70      0.00
   16    4    5     -3.09      0.00
   17    4    5      1.46      0.00
   18    4    5      1.81      0.00
   19    4    5      1.05      0.00
   20    4    5     -2.57      0.00
   21    4    5     -0.13      0.00
   22    4    5     -0.27      0.00
   23    4    5      3.94      0.00
  -23    5    5      4.34      0.00
  -22    5    5      5.48      0.00
  -21    5    5     -2.94      0.00
  -20    5    5     -1.70      0.00
  -19    5    5     -3.40      0.00
  -18    5    5     -1.24      0.00
  -17    5    5     -4.20      0.00
  -16    5    5      0.49      0.00
  -15    5    5     -0.30      0.00
  -14    5    5      0.95      0.00
  -13    5    5     -0.88      0.00
  -12    5    5     -0.74      0.00
  -11    5    5     -3.58      0.00
  -10    5    5      2.78      0.00
   -9    5    5     -1.02      0.00
   -8    5    5      0.29      0.00
   -7    5    5     -1.28      0.00
   -6    5    5      1.78      0.00
   -5    5    5      1.34      0.00
   -4    5    5     -1.07      0.00
   -3    5    5      0.11      0.00
   -2    5    5     -1.98      0.00
   -1    5    5      0.80      0.00
    0    5    5     -1.11      0.00
    1    5    5      1.04      0.00
    2    5    5     -0.50      0.00
    3    5    5      0.33      0.00
    4    5    5     -0.23      0.00
    5    5    5      0.71      0.00
    6    5    5      0.59      0.00
    7    5    5      1.17      0.00
    8    5    5      2.47      0.00
    9    5    5     -0.99      0.00
   10    5    5      1.94      0.00
   11    5    5     -2.39      0.00
   12    5    5      1.08      0.00
   13    5    5      0.05      0.00
   14    5    5      3.47      0.00
   15    5    5      0.67      0.00
   16    5    5      2.44      0.00
   17    5    5      0.89      0.00
   18    5    5     -1.48      0.00
   19    5    5      1.27      0.00
   20    5    5     -1.19      0.00
   21    5    5     -2.96      0.00
   22    5    5     -0.99      0.00
  -22    6    5      1.50      0.00
  -21    6    5     -1.51      0.00
  -20    6    5     -3.65      0.00
  -19    6    5      3.33      0.00
  -18    6    5     -1.10      0.00
  -17    6    5     -2.02      0.00
  -16    6    5     -3.07      0.00
  -15    6    5      1.41      0.00
  -14    6    5     -3.11      0.00
  -13    6    5      2.75      0.00
  -12    6    5      1.23      0.00
  -11    6    5      1.01      0.00
  -10    6    5      0.26      0.00
   -9    6    5      1.52      0.00
   -8    6    5      1.21      0.00
   -7    6    5      0.10      0.00
   -6    6    5     -0.93      0.00
   -5    6    5      1.77      0.00
   -4    6    5     -1.23      0.00
   -3    6    5      0.30      0.00
   -2    6    5     -2.02      0.00
   -1    6    5      1.42      0.00
    0    6    5      0.64      0.00
    1    6    5      0.16      0.00
    2    6    5     -1.86      0.00
    3    6    5      0.77      0.00
    4    6    5     -0.66      0.00
    5    6    5      1.40      0.00
    6    6    5      2.15      0.00
    7    6    5      1.33      0.00
    8    6    5      1.14      0.00
    9    6    5      1.53      0.00
   10    6    5     -0.46      0.00
   11    6    5      1.31      0.00
   12    6    5      0.72      0.00
   13    6    5     -0.85      0.00
   14    6    5     -3.12      0.00
   15    6    5      2.94      0.00
   16    6    5     -1.76      0.00
   17    6    5     -0.97      0.00
   18    6    5      0.15      0.00
   19    6    5      1.44      0.00
   20    6    5      0.89      0.00
  -19    7    5      2.91      0.00
  -18    7    5      0.93      0.00
  -17    7    5     -3.08      0.00
  -16    7    5      0.85      0.00
  -15    7    5     -2.43      0.00
  -14    7    5      0.88      0.00
  -13    7    5     -1.48      0.00
  -12    7    5     -3.39      0.00
  -11    7    5     -1.12      0.00
  -10    7    5      3.13      0.00
   -9    7    5     -1.92      0.00
   -8    7    5      3.77      0.00
   -7    7    5      0.59      0.00
   -6    7    5     -2.50      0.00
   -5    7    5     -0.92      0.00
   -4    7    5      2.36      0.00
   -3    7    5     -0.52      0.00
   -2    7    5      0.32      0.00
   -1    7    5      2.52      0.00
    0    7    5      3.21      0.00
    1    7    5      0.18      0.00
    2    7    5      2.16      0.00
    3    7    5     -0.31      0.00
    4    7    5     -1.37      0.00
    5    7    5     -1.82      0.00
    6    7    5      0.36      0.00
    7    7    5     -0.08      0.00
    8    7    5     -2.70      0.00
    9    7    5     -1.25      0.00
   10    7    5     -1.37      0.00
   11    7    5     -1.22      0.00
   12    7    5     -0.48      0.00
   13    7    5      2.04      0.00
   14    7    5     -3.36      0.00
   15    7    5     -0.25      0.00
   16    7    5      2.53      0.00
   17    7    5      5.52      0.00
   18    7    5     -1.22      0.00
  -17    8    5     -3.54      0.00
  -16    8    5     -1.65      0.00
  -15    8    5      3.44      0.00
  -14    8    5      3.94      0.00
  -13    8    5      3.31      0.00
  -12    8    5     -1.80      0.00
  -11    8    5      2.51      0.00
  -10    8    5      2.67      0.00
   -9    8    5      2.34      0.00
   -8    8    5      0.24      0.00
   -7    8    5      2.02      0.00
   -6    8    5     -1.51      0.00
   -5    8    5      2.31      0.00
   -4    8    5     -1.74      0.00
   -3    8    5      1.78      0.00
   -2    8    5      0.06      0.00
   -1    8    5     -1.87      0.00
    0    8    5     -1.43      0.00
    1    8    5      3.12      0.00
    2    8    5     -3.90      0.00
    3    8    5     -1.34      0.00
    4    8    5      3.22      0.00
    5    8    5     -1.52      0.00
    6    8    5      0.05      0.00
    7    8    5      4.17      0.00
    8    8    5      4.24      0.00
    9    8    5      1.80      0.00
   10    8    5     -5.54      0.00
   11    8    5     -3.74      0.00
   12    8    5     -0.70      0.00
   13    8    5      0.34      0.00
   14    8    5      0.27      0.00
   15    8    5      2.34      0.00
  -12    9    5     -1.32      0.00
  -11    9    5      0.11      0.00
  -10    9    5     -0.44      0.00
   -9    9    5      3.71      0.00
   -8    9    5     -5.92      0.00
   -7    9    5     -1.92      0.00
   -6    9    5     -1.34      0.00
   -5    9    5      5.71      0.00
   -4    9    5      2.20      0.00
   -3    9    5     -4.59      0.00
   -2    9    5     -0.91      0.00
   -1    9    5      3.09      0.00
    0    9    5     -0.52      0.00
    1    9    5     -2.24      0.00
    2    9    5      1.88      0.00
    3    9    5      4.56      0.00
    4    9    5      0.14      0.00
    5    9    5      2.05      0.00
    6    9    5      1.95      0.00
    7    9    5     -1.85      0.00
    8    9    5     -2.49      0.00
    9    9    5     -0.72      0.00
   10    9    5      2.47      0.00
   11    9    5      0.29      0.00
   -4   10    5      1.39      0.00
   -3   10    5     -1.33      0.00
   -2   10    5      1.81      0.00
   -1   10    5      1.67      0.00
    0   10    5     -5.04      0.00
    1   10    5     -1.50      0.00
    2   10    5      2.34      0.00
    3   10    5      3.46      0.00
  -26    0    6      2.67      0.00
  -24    0    6     -4.06      0.00
  -22    0    6      1.38      0.00
  -20    0    6      2.24      0.00
  -18    0    6      5.62      0.00
  -16    0    6     -1.12      0.00
  -14    0    6      3.53      0.00
  -12    0    6      1.00      0.00
  -10    0    6    -15.04      0.00
   -8    0    6    -13.99      0.00
   -6    0    6     -0.09      0.00
   -4    0    6     26.65      0.00
   -2    0    6    -33.49      0.00
    0    0    6     40.95      0.00
    2    0    6     22.41      0.00
    4    0    6    -12.38      0.00
    6    0    6     -5.19      0.00
    8    0    6     -0.16      0.00
   10    0    6     -6.19      0.00
   12    0    6      2.04      0.00
   14    0    6      3.59      0.00
   16    0    6      3.97      0.00
   18    0    6      2.66      0.00
   20    0    6      2.35      0.00
   22    0    6     -1.52      0.00
   24    0    6     -4.69      0.00
  -27    1    6     -1.23      0.00
  -26    1    6      1.31      0.00
  -25    1    6     -0.54      0.00
  -24    1    6      3.70      0.00
  -23    1    6      2.11      0.00
  -22    1    6     -3.87      0.00
  -21    1    6      0.38      0.00
  -20    1    6     -0.20      0.00
  -19    1    6      2.59      0.00
  -18    1    6     -1.27      0.00
  -17    1    6      2.87      0.00
  -16    1    6      0.11      0.00
  -15    1    6      1.55      0.00
  -14    1    6      2.02      0.00
  -13    1    6     -2.30      0.00
  -12    1    6     -2.00      0.00
  -11    1    6     -2.80      0.00
  -10    1    6     -3.98      0.00
   -9    1    6     -4.14      0.00
   -8    1    6      0.92      0.00
   -7    1    6      2.53      0.00
   -6    1    6      9.43      0.00
   -5    1    6     14.37      0.00
   -4    1    6      5.86      0.00
   -3    1    6     32.60      0.00
   -2    1    6     -9.37      0.00
   -1    1    6     32.39      0.00
    0    1    6     22.33      0.00
    1    1    6     24.23      0.00
    2    1    6     -7.74      0.00
    3    1    6      3.25      0.00
    4    1    6     -7.38      0.00
    5    1    6      2.32      0.00
    6    1    6      6.94      0.00
    7    1    6     -4.68      0.00
    8    1    6      2.10      0.00
    9    1    6     -1.66      0.00
   10    1    6      4.53      0.00
   11    1    6      0.54      0.00
   12    1    6      4.58      0.00
   13    1    6      1.00      0.00
   14    1    6      1.22      0.00
   15    1    6      1.36      0.00
   16    1    6      1.37      0.00
   17    1    6      0.87      0.00
   18    1    6      0.10      0.00
   19    1    6     -1.08      0.00
   20    1    6      1.68      0.00
   21    1    6      0.82      0.00
   22    1    6     -3.18      0.00
   23    1    6     -5.98      0.00
   24    1    6      2.63      0.00
   25    1    6      0.97      0.00
  -26    2    6     -3.50      0.00
  -25    2    6      3.40      0.00
  -24    2    6      2.31      0.00
  -23    2    6     -0.71      0.00
  -22    2    6      2.10      0.00
  -21    2    6      1.63      0.00
  -20    2    6     -2.97      0.00
  -19    2    6      0.27      0.00
  -18    2    6      1.95      0.00
  -17    2    6      1.55      0.00
  -16    2    6      0.61      0.00
  -15    2    6      2.60      0.00
  -14    2    6     -1.30      0.00
  -13    2    6      1.08      0.00
  -12    2    6     -1.03      0.00
  -11    2    6     -0.47      0.00
  -10    2    6     -4.13      0.00
   -9    2    6      3.93      0.00
   -8    2    6     -5.04      0.00
   -7    2    6      9.27      0.00
   -6    2    6     11.84      0.00
   -5    2    6      7.52      0.00
   -4    2    6     -0.04      0.00
   -3    2    6     -0.69      0.00
   -2    2    6     14.97      0.00
   -1    2    6     -4.41      0.00
    0    2    6      9.03      0.00
    1    2    6     -2.47      0.00
    2    2    6      4.66      0.00
    3    2    6     -4.49      0.00
    4    2    6      1.23      0.00
    5    2    6     -2.28      0.00
    6    2    6      3.11      0.00
    7    2    6     -0.86      0.00
    8    2    6      0.82      0.00
    9    2    6      1.71      0.00
   10    2    6      0.80      0.00
   11    2    6      0.73      0.00
   12    2    6      0.69      0.00
   13    2    6     -0.82      0.00
   14    2    6      1.30      0.00
   15    2    6     -0.17      0.00
   16    2    6      2.11      0.00
   17    2    6      0.64      0.00
   18    2    6      1.95      0.00
   19    2    6      1.33      0.00
   20    2    6      2.55      0.00
   21    2    6     -4.45      0.00
   22    2    6     -1.75      0.00
   23    2    6      1.08      0.00
   24    2    6      1.90      0.00
  -26    3    6      0.36      0.00
  -25    3    6      0.28      0.00
  -24    3    6      2.32      0.00
  -23    3    6      0.07      0.00
  -22    3    6     -4.33      0.00
  -21    3    6     -0.38      0.00
  -20    3    6      1.98      0.00
  -19    3    6     -0.02      0.00
  -18    3    6      0.91      0.00
  -17    3    6     -0.42      0.00
  -16    3    6      0.39      0.00
  -15    3    6     -1.15      0.00
  -14    3    6     -0.18      0.00
  -13    3    6     -3.70      0.00
  -12    3    6      4.37      0.00
  -11    3    6     -3.97      0.00
  -10    3    6      2.35      0.00
   -9    3    6     -0.38      0.00
   -8    3    6      4.01      0.00
   -7    3    6     -2.17      0.00
   -6    3    6      6.20      0.00
   -5    3    6      1.74      0.00
   -4    3    6      4.84      0.00
   -3    3    6      2.23      0.00
   -2    3    6      4.29      0.00
   -1    3    6      1.29      0.00
    0    3    6      1.68      0.00
    1    3    6     -0.03      0.00
    2    3    6      6.11      0.00
    3    3    6      0.53      0.00
    4    3    6      2.08      0.00
    5    3    6     -1.06      0.00
    6    3    6      5.58      0.00
    7    3    6     -1.67      0.00
    8    3    6      4.98      0.00
    9    3    6     -3.18      0.00
   10    3    6      1.08      0.00
   11    3    6     -1.18      0.00
   12    3    6     -2.12      0.00
   13    3    6      0.11      0.00
   14    3    6      0.51      0.00
   15    3    6     -1.83      0.00
   16    3    6      0.72      0.00
   17    3    6     -2.48      0.00
   18    3    6      0.17      0.00
   19    3    6     -1.47      0.00
   20    3    6      1.43      0.00
   21    3    6     -0.11      0.00
   22    3    6      1.21      0.00
   23    3    6     -3.19      0.00
   24    3    6     -0.40      0.00
  -25    4    6      0.29      0.00
  -24    4    6      1.15      0.00
  -23    4    6     -1.25      0.00
  -22    4    6     -0.87      0.00
  -21    4    6      3.43      0.00
  -20    4    6     -2.14      0.00
  -19    4    6      1.51      0.00
  -18    4    6      2.05      0.00
  -17    4    6     -1.51      0.00
  -16    4    6     -1.42      0.00
  -15    4    6      0.62      0.00
  -14    4    6      1.26      0.00
  -13    4    6      2.22      0.00
  -12    4    6     -1.49      0.00
  -11    4    6     -0.15      0.00
  -10    4    6     -2.83      0.00
   -9    4    6      0.86      0.00
   -8    4    6     -1.86      0.00
   -7    4    6      1.03      0.00
   -6    4    6      0.44      0.00
   -5    4    6      0.65      0.00
   -4    4    6      5.28      0.00
   -3    4    6     -0.29      0.00
   -2    4    6     -0.23      0.00
   -1    4    6      2.53      0.00
    0    4    6      6.18      0.00
    1    4    6      1.52      0.00
    2    4    6      0.96      0.00
    3    4    6      1.22      0.00
    4    4    6      2.54      0.00
    5    4    6      1.31      0.00
    6    4    6      0.38      0.00
    7    4    6      1.96      0.00
    8    4    6     -1.68      0.00
    9    4    6      2.18      0.00
   10    4    6     -0.72      0.00
   11    4    6      2.77      0.00
   12    4    6     -1.96      0.00
   13    4    6      1.02      0.00
   14    4    6     -2.54      0.00
   15    4    6     -1.32      0.00
   16    4    6     -1.25      0.00
   17    4    6      2.11      0.00
   18    4    6     -0.53      0.00
   19    4    6     -4.24      0.00
   20    4    6     -0.74      0.00
   21    4    6      2.37      0.00
   22    4    6      3.19      0.00
   23    4    6     -0.54      0.00
  -23    5    6      0.69      0.00
  -22    5    6     -2.36      0.00
  -21    5    6     -4.31      0.00
  -20    5    6     -3.45      0.00
  -19    5    6     -0.23      0.00
  -18    5    6     -1.02      0.00
  -17    5    6      0.78      0.00
  -16    5    6      4.32      0.00
  -15    5    6      0.33      0.00
  -14    5    6      2.93      0.00
  -13    5    6     -2.31      0.00
  -12    5    6     -0.81      0.00
  -11    5    6     -0.47      0.00
  -10    5    6      2.17      0.00
   -9    5    6     -3.65      0.00
   -8    5    6      1.22      0.00
   -7    5    6     -1.01      0.00
   -6    5    6      3.51      0.00
   -5    5    6     -2.30      0.00
   -4    5    6      1.14      0.00
   -3    5    6     -1.15      0.00
   -2    5    6     -0.96      0.00
   -1    5    6      1.39      0.00
    0    5    6     -0.99      0.00
    1    5    6     -0.17      0.00
    2    5    6     -2.31      0.00
    3    5    6     -1.02      0.00
    4    5    6      0.48      0.00
    5    5    6     -0.60      0.00
    6    5    6      2.79      0.00
    7    5    6      0.17      0.00
    8    5    6      2.06      0.00
    9    5    6      0.49      0.00
   10    5    6     -0.05      0.00
   11    5    6     -0.15      0.00
   12    5    6      0.79      0.00
   13    5    6     -0.01      0.00
   14    5    6      0.81      0.00
   15    5    6     -3.10      0.00
   16    5    6      1.06      0.00
   17    5    6     -4.50      0.00
   18    5    6     -2.63      0.00
   19    5    6      0.42      0.00
   20    5    6     -5.81      0.00
   21    5    6      0.74      0.00
  -22    6    6     -0.45      0.00
  -21    6    6     -3.00      0.00
  -20    6    6      4.19      0.00
  -19    6    6     -0.49      0.00
  -18    6    6     -2.66      0.00
  -17    6    6     -3.17      0.00
  -16    6    6      1.55      0.00
  -15    6    6      1.64      0.00
  -14    6    6      1.18      0.00
  -13    6    6      2.36      0.00
  -12    6    6     -1.68      0.00
  -11    6    6      0.81      0.00
  -10    6    6     -0.57      0.00
   -9    6    6      0.62      0.00
   -8    6    6     -3.08      0.00
   -7    6    6     -1.73      0.00
   -6    6    6     -0.88      0.00
   -5    6    6     -0.84      0.00
   -4    6    6     -2.75      0.00
   -3    6    6     -1.40      0.00
   -2    6    6     -0.25      0.00
   -1    6    6      2.04      0.00
    0    6    6     -1.16      0.00
    1    6    6     -0.41      0.00
    2    6    6     -1.22      0.00
    3    6    6      0.59      0.00
    4    6    6     -0.63      0.00
    5    6    6      2.22      0.00
    6    6    6     -0.25      0.00
    7    6    6      0.22      0.00
    8    6    6      0.07      0.00
    9    6    6     -0.89      0.00
   10    6    6      0.08      0.00
   11    6    6     -1.08      0.00
   12    6    6     -1.02      0.00
   13    6    6     -1.58      0.00
   14    6    6      2.51      0.00
   15    6    6      0.46      0.00
   16    6    6     -0.93      0.00
   17    6    6      2.66      0.00
   18    6    6      2.09      0.00
   19    6    6     -1.12      0.00
   20    6    6     -1.16      0.00
  -20    7    6      1.81      0.00
  -19    7    6      4.53      0.00
  -18    7    6     -2.22      0.00
  -17    7    6      0.54      0.00
  -16    7    6      0.36      0.00
  -15    7    6     -0.65      0.00
  -14    7    6      0.64      0.00
  -13    7    6     -5.68      0.00
  -12    7    6      0.78      0.00
  -11    7    6      1.96      0.00
  -10    7    6      0.99      0.00
   -9    7    6     -1.60      0.00
   -8    7    6      1.39      0.00
   -7    7    6     -4.69      0.00
   -6    7    6      0.35      0.00
   -5    7    6      0.62      0.00
   -4    7    6     -0.25      0.00
   -3    7    6     -2.45      0.00
   -2    7    6      2.38      0.00
   -1    7    6      2.48      0.00
    0    7    6     -1.24      0.00
    1    7    6     -0.46      0.00
    2    7    6     -0.68      0.00
    3    7    6     -3.70      0.00
    4    7    6     -2.65      0.00
    5    7    6      0.87      0.00
    6    7    6      0.45      0.00
    7    7    6     -2.52      0.00
    8    7    6     -1.02      0.00
    9    7    6     -1.11      0.00
   10    7    6     -1.00      0.00
   11    7    6      2.34      0.00
   12    7    6      1.58      0.00
   13    7    6     -2.74      0.00
   14    7    6      0.38      0.00
   15    7    6      4.94      0.00
   16    7    6      4.11      0.00
   17    7    6     -1.68      0.00
  -17    8    6      0.33      0.00
  -16    8    6      5.47      0.00
  -15    8    6      3.88      0.00
  -14    8    6      3.43      0.00
  -13    8    6     -2.53      0.00
  -12    8    6      2.70      0.00
  -11    8    6      3.68      0.00
  -10    8    6      0.23      0.00
   -9    8    6      0.17      0.00
   -8    8    6      1.94      0.00
   -7    8    6     -4.99      0.00
   -6    8    6     -0.14      0.00
   -5    8    6     -1.69      0.00
   -4    8    6      0.35      0.00
   -3    8    6     -0.52      0.00
   -2    8    6     -1.14      0.00
   -1    8    6     -0.05      0.00
    0    8    6      3.15      0.00
    1    8    6     -1.91      0.00
    2    8    6     -2.21      0.00
    3    8    6      1.88      0.00
    4    8    6      1.19      0.00
    5    8    6      0.88      0.00
    6    8    6      1.42      0.00
    7    8    6      4.01      0.00
    8    8    6     -1.59      0.00
    9    8    6     -2.69      0.00
   10    8    6     -1.99      0.00
   11    8    6      4.17      0.00
   12    8    6      1.32      0.00
   13    8    6      2.34      0.00
   14    8    6      1.26      0.00
   15    8    6      2.21      0.00
  -12    9    6     -2.57      0.00
  -11    9    6     -0.45      0.00
  -10    9    6      0.44      0.00
   -9    9    6     -7.68      0.00
   -8    9    6     -3.43      0.00
   -7    9    6     -1.50      0.00
   -6    9    6      1.93      0.00
   -5    9    6      1.91      0.00
   -4    9    6     -6.25      0.00
   -3    9    6      0.25      0.00
   -2    9    6      2.71      0.00
   -1    9    6      2.64      0.00
    0    9    6      1.66      0.00
    1    9    6      1.82      0.00
    2    9    6      3.24      0.00
    3    9    6     -0.87      0.00
    4    9    6     -1.26      0.00
    5    9    6     -1.05      0.00
    6    9    6     -4.06      0.00
    7    9    6     -3.91      0.00
    8    9    6      1.25      0.00
    9    9    6      2.17      0.00
   10    9    6      0.71      0.00
   -3   10    6      1.59      0.00
   -2   10    6      2.21      0.00
   -1   10    6     -4.43      0.00
    0   10    6     -0.79      0.00
    1   10    6      4.76      0.00
    2   10    6      4.51      0.00
  -27    0    7      6.06      0.00
  -25    0    7     -4.25      0.00
  -23    0    7      2.28      0.00
  -21    0    7      0.68      0.00
  -19    0    7      0.12      0.00
  -17    0    7     -4.55      0.00
  -15    0    7      0.17      0.00
  -13    0    7     -1.34      0.00
  -11    0    7     -6.52      0.00
   -9    0    7      1.60      0.00
   -7    0    7      6.97      0.00
   -5    0    7     -4.05      0.00
   -3    0    7    -73.31      0.00
   -1    0    7     15.50      0.00
    1    0    7     17.44      0.00
    3    0    7    -10.06      0.00
    5    0    7      6.49      0.00
    7    0    7     10.94      0.00
    9    0    7      1.46      0.00
   11    0    7      0.63      0.00
   13    0    7     -0.33      0.00
   15    0    7     -0.72      0.00
   17    0    7     -0.60      0.00
   19    0    7      0.31      0.00
   21    0    7     -1.70      0.00
   23    0    7     -1.94      0.00
   25    0    7      5.23      0.00
  -27    1    7     -2.54      0.00
  -26    1    7     -1.55      0.00
  -25    1    7     -0.30      0.00
  -24    1    7      2.60      0.00
  -23    1    7     -3.70      0.00
  -22    1    7     -0.48      0.00
  -21    1    7      2.14      0.00
  -20    1    7      1.09      0.00
  -19    1    7     -0.65      0.00
  -18    1    7      0.24      0.00
  -17    1    7     -0.84      0.00
  -16    1    7     -0.74      0.00
  -15    1    7      1.08      0.00
  -14    1    7     -0.95      0.00
  -13    1    7     -3.94      0.00
  -12    1    7      3.30      0.00
  -11    1    7     -4.77      0.00
  -10    1    7      3.75      0.00
   -9    1    7      1.40      0.00
   -8    1    7      4.17      0.00
   -7    1    7      5.15      0.00
   -6    1    7     -3.05      0.00
   -5    1    7      3.12      0.00
   -4    1    7    -11.43      0.00
   -3    1    7     -7.95      0.00
   -2    1    7    -25.25      0.00
   -1    1    7     40.50      0.00
    0    1    7    -25.03      0.00
    1    1    7    -10.11      0.00
    2    1    7     -9.79      0.00
    3    1    7     -6.20      0.00
    4    1    7     -0.91      0.00
    5    1    7      2.78      0.00
    6    1    7     -3.09      0.00
    7    1    7     -0.81      0.00
    8    1    7      3.13      0.00
    9    1    7      0.67      0.00
   10    1    7     -0.32      0.00
   11    1    7      1.29      0.00
   12    1    7     -3.34      0.00
   13    1    7     -1.02      0.00
   14    1    7     -2.94      0.00
   15    1    7      0.70      0.00
   16    1    7     -2.90      0.00
   17    1    7     -0.89      0.00
   18    1    7     -0.85      0.00
   19    1    7      0.91      0.00
   20    1    7      2.68      0.00
   21    1    7     -2.77      0.00
   22    1    7     -4.00      0.00
   23    1    7      3.47      0.00
   24    1    7      2.65      0.00
  -26    2    7      0.39      0.00
  -25    2    7      3.77      0.00
  -24    2    7     -2.35      0.00
  -23    2    7      1.81      0.00
  -22    2    7      0.58      0.00
  -21    2    7     -4.34      0.00
  -20    2    7     -1.78      0.00
  -19    2    7     -0.30      0.00
  -18    2    7     -0.61      0.00
  -17    2    7     -1.10      0.00
  -16    2    7     -2.47      0.00
  -15    2    7     -0.51      0.00
  -14    2    7     -5.38      0.00
  -13    2    7      1.86      0.00
  -12    2    7     -4.05      0.00
  -11    2    7      2.96      0.00
  -10    2    7     -1.61      0.00
   -9    2    7      3.93      0.00
   -8    2    7     -0.83      0.00
   -7    2    7     11.26      0.00
   -6    2    7    -10.33      0.00
   -5    2    7     -9.63      0.00
   -4    2    7    -15.65      0.00
   -3    2    7     -9.92      0.00
   -2    2    7    -12.62      0.00
   -1    2    7    -13.42      0.00
    0    2    7     -3.22      0.00
    1    2    7    -13.60      0.00
    2    2    7     -4.46      0.00
    3    2    7      0.46      0.00
    4    2    7     -2.90      0.00
    5    2    7      5.53      0.00
    6    2    7     -1.68      0.00
    7    2    7      5.05      0.00
    8    2    7     -2.18      0.00
    9    2    7      1.87      0.00
   10    2    7     -3.46      0.00
   11    2    7     -1.38      0.00
   12    2    7     -2.91      0.00
   13    2    7     -4.29      0.00
   14    2    7     -0.75      0.00
   15    2    7     -0.88      0.00
   16    2    7      1.59      0.00
   17    2    7     -0.12      0.00
   18    2    7      0.33      0.00
   19    2    7      0.39      0.00
   20    2    7     -2.69      0.00
   21    2    7     -3.75      0.00
   22    2    7      2.92      0.00
   23    2    7      4.72      0.00
   24    2    7      0.61      0.00
  -26    3    7      0.34      0.00
  -25    3    7      1.07      0.00
  -24    3    7      0.81      0.00
  -23    3    7     -2.74      0.00
  -22    3    7     -0.55      0.00
  -21    3    7      2.82      0.00
  -20    3    7     -2.17      0.00
  -19    3    7     -0.32      0.00
  -18    3    7     -0.22      0.00
  -17    3    7     -1.39      0.00
  -16    3    7     -0.83      0.00
  -15    3    7     -1.18      0.00
  -14    3    7     -0.55      0.00
  -13    3    7      1.80      0.00
  -12    3    7      2.81      0.00
  -11    3    7     -1.77      0.00
  -10    3    7      4.59      0.00
   -9    3    7     -1.58      0.00
   -8    3    7      0.86      0.00
   -7    3    7      0.60      0.00
   -6    3    7     -1.29      0.00
   -5    3    7     -3.90      0.00
   -4    3    7     -3.79      0.00
   -3    3    7     -2.01      0.00
   -2    3    7     -8.07      0.00
   -1    3    7     -2.95      0.00
    0    3    7     -1.14      0.00
    1    3    7      2.86      0.00
    2    3    7      3.23      0.00
    3    3    7     -2.32      0.00
    4    3    7      4.32      0.00
    5    3    7     -0.32      0.00
    6    3    7      3.60      0.00
    7    3    7     -1.82      0.00
    8    3    7      1.89      0.00
    9    3    7     -4.51      0.00
   10    3    7      1.32      0.00
   11    3    7     -5.93      0.00
   12    3    7     -1.90      0.00
   13    3    7     -2.42      0.00
   14    3    7      0.01      0.00
   15    3    7     -0.93      0.00
   16    3    7     -2.06      0.00
   17    3    7     -1.36      0.00
   18    3    7      2.30      0.00
   19    3    7      1.20      0.00
   20    3    7      2.00      0.00
   21    3    7      0.72      0.00
   22    3    7      1.22      0.00
   23    3    7     -0.02      0.00
  -25    4    7      0.82      0.00
  -24    4    7     -1.37      0.00
  -23    4    7     -1.38      0.00
  -22    4    7      0.67      0.00
  -21    4    7     -1.65      0.00
  -20    4    7     -1.21      0.00
  -19    4    7      0.58      0.00
  -18    4    7     -1.88      0.00
  -17    4    7     -1.93      0.00
  -16    4    7      1.71      0.00
  -15    4    7      0.49      0.00
  -14    4    7     -0.38      0.00
  -13    4    7      0.31      0.00
  -12    4    7     -2.38      0.00
  -11    4    7      1.03      0.00
  -10    4    7     -1.24      0.00
   -9    4    7      1.71      0.00
   -8    4    7     -2.76      0.00
   -7    4    7      1.03      0.00
   -6    4    7     -1.03      0.00
   -5    4    7     -1.56      0.00
   -4    4    7     -1.85      0.00
   -3    4    7     -6.55      0.00
   -2    4    7      0.24      0.00
   -1    4    7     -2.33      0.00
    0    4    7      0.05      0.00
    1    4    7     -2.85      0.00
    2    4    7     -0.92      0.00
    3    4    7     -0.09      0.00
    4    4    7     -0.72      0.00
    5    4    7      0.62      0.00
    6    4    7     -0.97      0.00
    7    4    7      0.78      0.00
    8    4    7     -1.62      0.00
    9    4    7      1.38      0.00
   10    4    7     -0.17      0.00
   11    4    7     -1.46      0.00
   12    4    7     -1.63      0.00
   13    4    7     -0.67      0.00
   14    4    7     -2.83      0.00
   15    4    7      1.37      0.00
   16    4    7      1.05      0.00
   17    4    7      2.18      0.00
   18    4    7     -1.78      0.00
   19    4    7      0.07      0.00
   20    4    7      6.59      0.00
   21    4    7      1.35      0.00
   22    4    7      2.18      0.00
  -23    5    7     -2.01      0.00
  -22    5    7     -2.97      0.00
  -21    5    7     -3.84      0.00
  -20    5    7     -0.18      0.00
  -19    5    7      0.56      0.00
  -18    5    7     -0.75      0.00
  -17    5    7      3.67      0.00
  -16    5    7      0.54      0.00
  -15    5    7      0.35      0.00
  -14    5    7      0.07      0.00
  -13    5    7     -3.04      0.00
  -12    5    7      2.40      0.00
  -11    5    7      0.10      0.00
  -10    5    7      0.65      0.00
   -9    5    7     -1.36      0.00
   -8    5    7      2.12      0.00
   -7    5    7      0.47      0.00
   -6    5    7      0.59      0.00
   -5    5    7     -1.47      0.00
   -4    5    7      0.86      0.00
   -3    5    7     -2.22      0.00
   -2    5    7      2.12      0.00
   -1    5    7     -0.47      0.00
    0    5    7      0.21      0.00
    1    5    7     -2.50      0.00
    2    5    7      1.66      0.00
    3    5    7      0.36      0.00
    4    5    7      1.98      0.00
    5    5    7      0.78      0.00
    6    5    7      2.34      0.00
    7    5    7     -1.92      0.00
    8    5    7      1.91      0.00
    9    5    7     -2.40      0.00
   10    5    7      0.04      0.00
   11    5    7     -0.65      0.00
   12    5    7      0.09      0.00
   13    5    7      0.87      0.00
   14    5    7      0.16      0.00
   15    5    7      0.53      0.00
   16    5    7      0.84      0.00
   17    5    7     -3.74      0.00
   18    5    7      4.75      0.00
   19    5    7     -1.72      0.00
   20    5    7      1.18      0.00
   21    5    7      5.88      0.00
  -22    6    7     -0.02      0.00
  -21    6    7      4.38      0.00
  -20    6    7     -0.44      0.00
  -19    6    7     -2.34      0.00
  -18    6    7     -4.35      0.00
  -17    6    7      2.04      0.00
  -16    6    7      1.40      0.00
  -15    6    7      0.53      0.00
  -14    6    7     -1.04      0.00
  -13    6    7     -1.85      0.00
  -12    6    7     -0.55      0.00
  -11    6    7      1.53      0.00
  -10    6    7     -0.51      0.00
   -9    6    7     -0.02      0.00
   -8    6    7     -1.99      0.00
   -7    6    7      2.41      0.00
   -6    6    7      0.07      0.00
   -5    6    7      0.60      0.00
   -4    6    7     -0.22      0.00
   -3    6    7      1.65      0.00
   -2    6    7      3.10      0.00
   -1    6    7      0.68      0.00
    0    6    7      0.53      0.00
    1    6    7      0.53      0.00
    2    6    7      1.46      0.00
    3    6    7      0.79      0.00
    4    6    7      2.38      0.00
    5    6    7      0.33      0.00
    6    6    7     -0.50      0.00
    7    6    7     -0.39      0.00
    8    6    7     -0.99      0.00
    9    6    7     -1.35      0.00
   10    6    7     -1.98      0.00
   11    6    7     -1.34      0.00
   12    6    7      0.82      0.00
   13    6    7      2.55      0.00
   14    6    7      0.29      0.00
   15    6    7      1.38      0.00
   16    6    7      2.16      0.00
   17    6    7      2.45      0.00
   18    6    7     -2.52      0.00
   19    6    7     -0.75      0.00
  -20    7    7      2.95      0.00
  -19    7    7     -4.40      0.00
  -18    7    7     -0.99      0.00
  -17    7    7     -0.51      0.00
  -16    7    7      2.27      0.00
  -15    7    7      1.14      0.00
  -14    7    7     -0.57      0.00
  -13    7    7      2.40      0.00
  -12    7    7      6.38      0.00
  -11    7    7      1.88      0.00
  -10    7    7     -0.99      0.00
   -9    7    7     -0.28      0.00
   -8    7    7     -0.76      0.00
   -7    7    7      1.02      0.00
   -6    7    7      2.87      0.00
   -5    7    7     -0.04      0.00
   -4    7    7     -0.96      0.00
   -3    7    7      2.37      0.00
   -2    7    7      3.70      0.00
   -1    7    7     -1.70      0.00
    0    7    7     -0.62      0.00
    1    7    7     -0.07      0.00
    2    7    7     -1.29      0.00
    3    7    7     -0.24      0.00
    4    7    7      3.32      0.00
    5    7    7      2.43      0.00
    6    7    7      0.42      0.00
    7    7    7     -0.84      0.00
    8    7    7      2.47      0.00
    9    7    7     -1.05      0.00
   10    7    7      4.20      0.00
   11    7    7      0.76      0.00
   12    7    7     -2.90      0.00
   13    7    7     -1.33      0.00
   14    7    7      4.18      0.00
   15    7    7     -0.50      0.00
   16    7    7     -3.49      0.00
   17    7    7     -3.89      0.00
  -17    8    7      2.46      0.00
  -16    8    7      3.73      0.00
  -15    8    7     -0.73      0.00
  -14    8    7     -1.33      0.00
  -13    8    7     -1.14      0.00
  -12    8    7      3.14      0.00
  -11    8    7     -1.12      0.00
  -10    8    7     -2.58      0.00
   -9    8    7      2.59      0.00
   -8    8    7     -6.86      0.00
   -7    8    7     -1.16      0.00
   -6    8    7      0.93      0.00
   -5    8    7      0.54      0.00
   -4    8    7      1.04      0.00
   -3    8    7     -1.37      0.00
   -2    8    7      1.89      0.00
   -1    8    7      1.41      0.00
    0    8    7     -0.47      0.00
    1    8    7     -0.40      0.00
    2    8    7      2.57      0.00
    3    8    7      3.10      0.00
    4    8    7      3.34      0.00
    5    8    7     -1.02      0.00
    6    8    7      1.60      0.00
    7    8    7     -0.27      0.00
    8    8    7     -3.40      0.00
    9    8    7      2.31      0.00
   10    8    7      2.83      0.00
   11    8    7     -0.20      0.00
   12    8    7      0.48      0.00
   13    8    7     -0.78      0.00
   14    8    7      2.22      0.00
  -12    9    7      1.53      0.00
  -11    9    7     -5.58      0.00
  -10    9    7     -3.53      0.00
   -9    9    7     -5.06      0.00
   -8    9    7      3.22      0.00
   -7    9    7     -1.06      0.00
   -6    9    7      5.10      0.00
   -5    9    7     -5.77      0.00
   -4    9    7      1.51      0.00
   -3    9    7      1.81      0.00
   -2    9    7      0.90      0.00
   -1    9    7      1.54      0.00
    0    9    7     -1.71      0.00
    1    9    7     -0.61      0.00
    2    9    7     -1.34      0.00
    3    9    7      0.36      0.00
    4    9    7     -1.82      0.00
    5    9    7     -3.43      0.00
    6    9    7     -0.81      0.00
    7    9    7      4.36      0.00
    8    9    7      3.80      0.00
    9    9    7     -0.77      0.00
   10    9    7     -1.04      0.00
   -2   10    7     -5.37      0.00
   -1   10    7     -1.92      0.00
    0   10    7      3.82      0.00
    1   10    7      2.23      0.00
  -26    0    8     -6.91      0.00
  -24    0    8      4.40      0.00
  -22    0    8      2.62      0.00
  -20    0    8      0.53      0.00
  -18    0    8     -1.08      0.00
  -16    0    8     -0.52      0.00
  -14    0    8     -3.45      0.00
  -12    0    8     -6.97      0.00
  -10    0    8     -0.94      0.00
   -8    0    8      4.71      0.00
   -6    0    8      5.70      0.00
   -4    0    8     -6.99      0.00
   -2    0    8     84.34      0.00
    0    0    8     52.20      0.00
    2    0    8    -12.49      0.00
    4    0    8     -5.44      0.00
    6    0    8     -2.77      0.00
    8    0    8     -5.09      0.00
   10    0    8     -1.48      0.00
   12    0    8      3.85      0.00
   14    0    8      2.61      0.00
   16    0    8      0.34      0.00
   18    0    8     -1.53      0.00
   20    0    8     -2.99      0.00
   22    0    8      0.73      0.00
   24    0    8      5.13      0.00
  -27    1    8     -3.58      0.00
  -26    1    8      2.21      0.00
  -25    1    8      1.07      0.00
  -24    1    8     -0.41      0.00
  -23    1    8     -1.44      0.00
  -22    1    8      2.95      0.00
  -21    1    8      0.59      0.00
  -20    1    8     -1.36      0.00
  -19    1    8      0.12      0.00
  -18    1    8     -0.17      0.00
  -17    1    8     -1.05      0.00
  -16    1    8      2.20      0.00
  -15    1    8     -1.53      0.00
  -14    1    8     -1.08      0.00
  -13    1    8     -1.08      0.00
  -12    1    8      1.88      0.00
  -11    1    8     -3.24      0.00
  -10    1    8      7.58      0.00
   -9    1    8     -2.55      0.00
   -8    1    8      6.83      0.00
   -7    1    8     -3.42      0.00
   -6    1    8      3.20      0.00
   -5    1    8      3.16      0.00
   -4    1    8     -2.87      0.00
   -3    1    8      7.73      0.00
   -2    1    8     31.03      0.00
   -1    1    8     10.33      0.00
    0    1    8    -28.57      0.00
    1    1    8     12.79      0.00
    2    1    8    -13.34      0.00
    3    1    8     -3.10      0.00
    4    1    8      0.20      0.00
    5    1    8     -8.20      0.00
    6    1    8      0.74      0.00
    7    1    8     -0.04      0.00
    8    1    8      1.17      0.00
    9    1    8     -2.73      0.00
   10    1    8      0.50      0.00
   11    1    8     -0.37      0.00
   12    1    8     -0.44      0.00
   13    1    8      2.92      0.00
   14    1    8      0.43      0.00
   15    1    8      2.16      0.00
   16    1    8     -2.38      0.00
   17    1    8      3.36      0.00
   18    1    8     -0.65      0.00
   19    1    8      2.00      0.00
   20    1    8     -2.08      0.00
   21    1    8     -4.32      0.00
   22    1    8      2.49      0.00
   23    1    8      2.47      0.00
   24    1    8      1.13      0.00
  -26    2    8      1.59      0.00
  -25    2    8      1.44      0.00
  -24    2    8     -0.77      0.00
  -23    2    8      0.15      0.00
  -22    2    8     -3.74      0.00
  -21    2    8     -2.37      0.00
  -20    2    8      1.39      0.00
  -19    2    8      0.27      0.00
  -18    2    8      1.31      0.00
  -17    2    8     -1.27      0.00
  -16    2    8     -0.01      0.00
  -15    2    8     -1.21      0.00
  -14    2    8     -1.12      0.00
  -13    2    8      2.80      0.00
  -12    2    8     -0.85      0.00
  -11    2    8      4.26      0.00
  -10    2    8     -1.14      0.00
   -9    2    8      5.52      0.00
   -8    2    8      3.51      0.00
   -7    2    8      0.01      0.00
   -6    2    8     -5.73      0.00
   -5    2    8      2.68      0.00
   -4    2    8      6.36      0.00
   -3    2    8      7.32      0.00
   -2    2    8     11.00      0.00
   -1    2    8     10.53      0.00
    0    2    8      0.43      0.00
    1    2    8      4.91      0.00
    2    2    8      7.14      0.00
    3    2    8      3.81      0.00
    4    2    8      0.58      0.00
    5    2    8      7.15      0.00
    6    2    8     -1.54      0.00
    7    2    8      5.52      0.00
    8    2    8     -4.73      0.00
    9    2    8      2.81      0.00
   10    2    8     -2.65      0.00
   11    2    8      2.86      0.00
   12    2    8     -2.99      0.00
   13    2    8      1.81      0.00
   14    2    8      1.79      0.00
   15    2    8      2.42      0.00
   16    2    8     -0.45      0.00
   17    2    8     -2.25      0.00
   18    2    8     -2.80      0.00
   19    2    8     -0.90      0.00
   20    2    8     -5.69      0.00
   21    2    8      2.89      0.00
   22    2    8      5.40      0.00
   23    2    8     -0.84      0.00
   24    2    8     -5.60      0.00
  -26    3    8      1.57      0.00
  -25    3    8     -0.58      0.00
  -24    3    8     -0.27      0.00
  -23    3    8     -0.59      0.00
  -22    3    8      3.88      0.00
  -21    3    8     -0.04      0.00
  -20    3    8      0.12      0.00
  -19    3    8      3.73      0.00
  -18    3    8      0.28      0.00
  -17    3    8      0.80      0.00
  -16    3    8      1.29      0.00
  -15    3    8      0.22      0.00
  -14    3    8      2.56      0.00
  -13    3    8      1.50      0.00
  -12    3    8      0.42      0.00
  -11    3    8     -0.03      0.00
  -10    3    8      0.53      0.00
   -9    3    8     -2.26      0.00
   -8    3    8      3.07      0.00
   -7    3    8     -2.02      0.00
   -6    3    8     -2.73      0.00
   -5    3    8      3.52      0.00
   -4    3    8     -0.36      0.00
   -3    3    8      6.01      0.00
   -2    3    8     -0.14      0.00
   -1    3    8     14.02      0.00
    0    3    8      3.47      0.00
    1    3    8      6.96      0.00
    2    3    8     -1.86      0.00
    3    3    8      0.61      0.00
    4    3    8      0.31      0.00
    5    3    8     -2.78      0.00
    6    3    8      1.90      0.00
    7    3    8     -3.62      0.00
    8    3    8      1.30      0.00
    9    3    8     -1.07      0.00
   10    3    8      0.53      0.00
   11    3    8     -0.66      0.00
   12    3    8      3.17      0.00
   13    3    8      3.40      0.00
   14    3    8      3.55      0.00
   15    3    8     -2.68      0.00
   16    3    8     -0.73      0.00
   17    3    8      2.11      0.00
   18    3    8      0.22      0.00
   19    3    8      0.31      0.00
   20    3    8     -1.03      0.00
   21    3    8      1.08      0.00
   22    3    8     -0.59      0.00
   23    3    8     -0.63      0.00
  -25    4    8      0.44      0.00
  -24    4    8     -3.58      0.00
  -23    4    8      0.12      0.00
  -22    4    8     -0.23      0.00
  -21    4    8     -0.50      0.00
  -20    4    8      1.75      0.00
  -19    4    8     -0.31      0.00
  -18    4    8      0.10      0.00
  -17    4    8      2.43      0.00
  -16    4    8     -0.21      0.00
  -15    4    8     -0.02      0.00
  -14    4    8     -1.82      0.00
  -13    4    8      2.09      0.00
  -12    4    8     -2.97      0.00
  -11    4    8      2.32      0.00
  -10    4    8     -2.87      0.00
   -9    4    8      1.63      0.00
   -8    4    8     -2.04      0.00
   -7    4    8      4.79      0.00
   -6    4    8     -2.53      0.00
   -5    4    8      2.48      0.00
   -4    4    8      0.95      0.00
   -3    4    8      2.19      0.00
   -2    4    8      3.38      0.00
   -1    4    8      1.46      0.00
    0    4    8      2.36      0.00
    1    4    8     -0.62      0.00
    2    4    8     -1.82      0.00
    3    4    8      0.53      0.00
    4    4    8     -2.00      0.00
    5    4    8      1.60      0.00
    6    4    8     -1.92      0.00
    7    4    8      2.62      0.00
    8    4    8     -1.78      0.00
    9    4    8      4.06      0.00
   10    4    8     -1.23      0.00
   11    4    8      0.43      0.00
   12    4    8      0.00      0.00
   13    4    8     -0.25      0.00
   14    4    8      0.04      0.00
   15    4    8      2.20      0.00
   16    4    8     -0.12      0.00
   17    4    8      0.50      0.00
   18    4    8     -3.03      0.00
   19    4    8      5.28      0.00
   20    4    8     -1.81      0.00
   21    4    8      0.00      0.00
   22    4    8     -2.89      0.00
  -24    5    8      2.90      0.00
  -23    5    8      0.26      0.00
  -22    5    8      0.52      0.00
  -21    5    8      0.44      0.00
  -20    5    8      3.81      0.00
  -19    5    8     -0.22      0.00
  -18    5    8      3.71      0.00
  -17    5    8      0.98      0.00
  -16    5    8      0.69      0.00
  -15    5    8     -1.15      0.00
  -14    5    8     -0.69      0.00
  -13    5    8     -0.28      0.00
  -12    5    8      2.13      0.00
  -11    5    8     -1.35      0.00
  -10    5    8      0.91      0.00
   -9    5    8     -1.02      0.00
   -8    5    8      2.36      0.00
   -7    5    8     -0.69      0.00
   -6    5    8     -0.27      0.00
   -5    5    8      0.45      0.00
   -4    5    8     -0.41      0.00
   -3    5    8      1.59      0.00
   -2    5    8      0.95      0.00
   -1    5    8     -0.24      0.00
    0    5    8     -0.03      0.00
    1    5    8      1.21      0.00
    2    5    8      2.68      0.00
    3    5    8     -0.83      0.00
    4    5    8      1.80      0.00
    5    5    8     -0.74      0.00
    6    5    8     -1.07      0.00
    7    5    8     -1.47      0.00
    8    5    8      0.38      0.00
    9    5    8     -1.90      0.00
   10    5    8      0.26      0.00
   11    5    8     -1.49      0.00
   12    5    8      2.54      0.00
   13    5    8     -0.48      0.00
   14    5    8      1.33      0.00
   15    5    8     -0.78      0.00
   16    5    8     -1.37      0.00
   17    5    8      2.16      0.00
   18    5    8      2.87      0.00
   19    5    8     -2.72      0.00
   20    5    8      6.60      0.00
   21    5    8     -2.07      0.00
  -22    6    8      1.12      0.00
  -21    6    8     -1.33      0.00
  -20    6    8     -2.13      0.00
  -19    6    8      0.06      0.00
  -18    6    8      2.01      0.00
  -17    6    8      7.20      0.00
  -16    6    8     -0.95      0.00
  -15    6    8      1.92      0.00
  -14    6    8     -3.84      0.00
  -13    6    8      1.49      0.00
  -12    6    8      0.23      0.00
  -11    6    8     -0.08      0.00
  -10    6    8     -0.69      0.00
   -9    6    8     -1.05      0.00
   -8    6    8      0.66      0.00
   -7    6    8      1.51      0.00
   -6    6    8     -0.02      0.00
   -5    6    8      0.08      0.00
   -4    6    8      0.16      0.00
   -3    6    8      1.21      0.00
   -2    6    8      0.10      0.00
   -1    6    8     -1.18      0.00
    0    6    8     -0.79      0.00
    1    6    8     -0.61      0.00
    2    6    8     -0.47      0.00
    3    6    8     -0.16      0.00
    4    6    8     -0.35      0.00
    5    6    8     -1.55      0.00
    6    6    8     -1.86      0.00
    7    6    8      0.10      0.00
    8    6    8     -2.62      0.00
    9    6    8     -1.62      0.00
   10    6    8     -1.74      0.00
   11    6    8      1.67      0.00
   12    6    8      0.52      0.00
   13    6    8     -1.91      0.00
   14    6    8     -1.49      0.00
   15    6    8      0.02      0.00
   16    6    8     -2.78      0.00
   17    6    8     -3.95      0.00
   18    6    8     -2.49      0.00
   19    6    8      0.26      0.00
  -20    7    8     -4.03      0.00
  -19    7    8     -2.01      0.00
  -18    7    8      2.22      0.00
  -17    7    8      2.68      0.00
  -16    7    8      2.65      0.00
  -15    7    8     -0.79      0.00
  -14    7    8      1.75      0.00
  -13    7    8      3.77      0.00
  -12    7    8      0.00      0.00
  -11    7    8     -3.80      0.00
  -10    7    8     -1.60      0.00
   -9    7    8     -0.40      0.00
   -8    7    8      1.72      0.00
   -7    7    8      0.68      0.00
   -6    7    8     -0.52      0.00
   -5    7    8     -1.90      0.00
   -4    7    8      1.84      0.00
   -3    7    8      2.63      0.00
   -2    7    8     -0.82      0.00
   -1    7    8     -1.86      0.00
    0    7    8      1.06      0.00
    1    7    8     -1.44      0.00
    2    7    8      0.58      0.00
    3    7    8      1.11      0.00
    4    7    8      0.55      0.00
    5    7    8     -1.16      0.00
    6    7    8     -1.49      0.00
    7    7    8     -0.38      0.00
    8    7    8      0.31      0.00
    9    7    8      0.94      0.00
   10    7    8      2.49      0.00
   11    7    8     -2.14      0.00
   12    7    8     -0.47      0.00
   13    7    8      3.51      0.00
   14    7    8     -0.35      0.00
   15    7    8     -3.39      0.00
   16    7    8     -1.85      0.00
   17    7    8      0.40      0.00
  -17    8    8      1.93      0.00
  -16    8    8     -3.02      0.00
  -15    8    8     -4.26      0.00
  -14    8    8     -3.86      0.00
  -13    8    8     -0.62      0.00
  -12    8    8     -2.33      0.00
  -11    8    8     -1.93      0.00
  -10    8    8     -1.51      0.00
   -9    8    8     -2.30      0.00
   -8    8    8     -4.98      0.00
   -7    8    8      4.52      0.00
   -6    8    8     -0.78      0.00
   -5    8    8      1.78      0.00
   -4    8    8     -1.51      0.00
   -3    8    8      2.83      0.00
   -2    8    8      1.28      0.00
   -1    8    8     -0.10      0.00
    0    8    8      1.41      0.00
    1    8    8      0.92      0.00
    2    8    8      1.23      0.00
    3    8    8      0.65      0.00
    4    8    8     -3.40      0.00
    5    8    8     -2.77      0.00
    6    8    8     -0.09      0.00
    7    8    8     -3.25      0.00
    8    8    8      1.99      0.00
    9    8    8      0.75      0.00
   10    8    8     -2.39      0.00
   11    8    8     -1.13      0.00
   12    8    8      1.69      0.00
   13    8    8      0.87      0.00
   14    8    8      3.35      0.00
  -12    9    8     -4.95      0.00
  -11    9    8     -3.64      0.00
  -10    9    8      2.08      0.00
   -9    9    8      0.55      0.00
   -8    9    8      0.93      0.00
   -7    9    8      3.74      0.00
   -6    9    8     -1.59      0.00
   -5    9    8      1.63      0.00
   -4    9    8      3.43      0.00
   -3    9    8      0.30      0.00
   -2    9    8      3.82      0.00
   -1    9    8     -1.11      0.00
    0    9    8     -2.43      0.00
    1    9    8      0.34      0.00
    2    9    8     -0.51      0.00
    3    9    8     -1.07      0.00
    4    9    8     -6.82      0.00
    5    9    8      0.94      0.00
    6    9    8      7.48      0.00
    7    9    8      0.42      0.00
    8    9    8     -1.48      0.00
    9    9    8     -4.49      0.00
   10    9    8     -0.01      0.00
  -27    0    9     -6.37      0.00
  -25    0    9      5.60      0.00
  -23    0    9      1.14      0.00
  -21    0    9     -2.76      0.00
  -19    0    9     -0.94      0.00
  -17    0    9     -2.12      0.00
  -15    0    9      0.62      0.00
  -13    0    9      3.61      0.00
  -11    0    9      7.91      0.00
   -9    0    9      4.55      0.00
   -7    0    9     -4.96      0.00
   -5    0    9    -16.32      0.00
   -3    0    9     28.51      0.00
   -1    0    9    -15.22      0.00
    1    0    9    -45.70      0.00
    3    0    9     -8.16      0.00
    5    0    9      0.29      0.00
    7    0    9     -0.10      0.00
    9    0    9     -2.24      0.00
   11    0    9      0.58      0.00
   13    0    9     -2.35      0.00
   15    0    9     -4.19      0.00
   17    0    9     -2.61      0.00
   19    0    9     -0.49      0.00
   21    0    9      4.04      0.00
   23    0    9      2.56      0.00
  -27    1    9     -1.52      0.00
  -26    1    9      3.95      0.00
  -25    1    9     -1.89      0.00
  -24    1    9      1.58      0.00
  -23    1    9      0.75      0.00
  -22    1    9     -0.47      0.00
  -21    1    9     -3.11      0.00
  -20    1    9     -1.47      0.00
  -19    1    9     -0.69      0.00
  -18    1    9     -2.15      0.00
  -17    1    9     -0.09      0.00
  -16    1    9     -0.54      0.00
  -15    1    9     -2.05      0.00
  -14    1    9      1.39      0.00
  -13    1    9      0.20      0.00
  -12    1    9      3.61      0.00
  -11    1    9      1.06      0.00
  -10    1    9      4.86      0.00
   -9    1    9     -2.43      0.00
   -8    1    9      1.37      0.00
   -7    1    9     -5.95      0.00
   -6    1    9     -0.89      0.00
   -5    1    9     -8.20      0.00
   -4    1    9    -10.18      0.00
   -3    1    9      9.48      0.00
   -2    1    9    -13.53      0.00
   -1    1    9    -37.60      0.00
    0    1    9     -4.05      0.00
    1    1    9     -9.99      0.00
    2    1    9     -5.63      0.00
    3    1    9      3.70      0.00
    4    1    9      3.12      0.00
    5    1    9      0.09      0.00
    6    1    9     11.48      0.00
    7    1    9     -2.57      0.00
    8    1    9      3.52      0.00
    9    1    9     -4.14      0.00
   10    1    9      0.08      0.00
   11    1    9     -1.74      0.00
   12    1    9     -0.66      0.00
   13    1    9     -1.04      0.00
   14    1    9     -2.15      0.00
   15    1    9     -2.10      0.00
   16    1    9      0.42      0.00
   17    1    9      0.73      0.00
   18    1    9      0.14      0.00
   19    1    9      0.15      0.00
   20    1    9     -2.32      0.00
   21    1    9      1.13      0.00
   22    1    9      1.95      0.00
   23    1    9      0.49      0.00
   24    1    9     -1.95      0.00
  -27    2    9     -1.27      0.00
  -26    2    9     -1.61      0.00
  -25    2    9      0.05      0.00
  -24    2    9     -1.15      0.00
  -23    2    9     -1.20      0.00
  -22    2    9     -1.07      0.00
  -21    2    9      1.52      0.00
  -20    2    9      0.99      0.00
  -19    2    9      1.58      0.00
  -18    2    9     -1.64      0.00
  -17    2    9     -0.43      0.00
  -16    2    9     -0.13      0.00
  -15    2    9      0.34      0.00
  -14    2    9      1.77      0.00
  -13    2    9      3.89      0.00
  -12    2    9     -0.20      0.00
  -11    2    9      2.92      0.00
  -10    2    9     -1.72      0.00
   -9    2    9      2.56      0.00
   -8    2    9     -6.09      0.00
   -7    2    9     -6.09      0.00
   -6    2    9     -0.98      0.00
   -5    2    9     -3.85      0.00
   -4    2    9      2.86      0.00
   -3    2    9     -9.47      0.00
   -2    2    9      5.74      0.00
   -1    2    9    -18.67      0.00
    0    2    9      1.62      0.00
    1    2    9      2.48      0.00
    2    2    9     -1.80      0.00
    3    2    9      1.80      0.00
    4    2    9      1.61      0.00
    5    2    9      4.24      0.00
    6    2    9     -2.71      0.00
    7    2    9      0.88      0.00
    8    2    9     -4.65      0.00
    9    2    9      0.81      0.00
   10    2    9     -1.78      0.00
   11    2    9     -3.54      0.00
   12    2    9     -3.45      0.00
   13    2    9      0.05      0.00
   14    2    9     -1.03      0.00
   15    2    9     -2.21      0.00
   16    2    9     -3.84      0.00
   17    2    9     -1.78      0.00
   18    2    9      2.05      0.00
   19    2    9      0.65      0.00
   20    2    9      2.67      0.00
   21    2    9      8.37      0.00
   22    2    9     -0.89      0.00
   23    2    9     -5.01      0.00
  -26    3    9      1.14      0.00
  -25    3    9     -1.09      0.00
  -24    3    9      2.17      0.00
  -23    3    9      0.57      0.00
  -22    3    9      0.25      0.00
  -21    3    9     -2.89      0.00
  -20    3    9      1.49      0.00
  -19    3    9     -0.71      0.00
  -18    3    9     -1.58      0.00
  -17    3    9     -0.55      0.00
  -16    3    9      0.42      0.00
  -15    3    9     -2.32      0.00
  -14    3    9      2.87      0.00
  -13    3    9     -3.68      0.00
  -12    3    9      2.84      0.00
  -11    3    9     -4.79      0.00
  -10    3    9      1.16      0.00
   -9    3    9     -2.19      0.00
   -8    3    9     -0.30      0.00
   -7    3    9     -8.54      0.00
   -6    3    9      1.97      0.00
   -5    3    9     -5.75      0.00
   -4    3    9     -3.01      0.00
   -3    3    9     -1.66      0.00
   -2    3    9     -1.80      0.00
   -1    3    9     -0.17      0.00
    0    3    9     -9.49      0.00
    1    3    9     -2.92      0.00
    2    3    9     -7.84      0.00
    3    3    9     -1.29      0.00
    4    3    9     -3.29      0.00
    5    3    9      0.66      0.00
    6    3    9      0.53      0.00
    7    3    9     -2.74      0.00
    8    3    9      2.43      0.00
    9    3    9     -4.30      0.00
   10    3    9      0.75      0.00
   11    3    9     -0.43      0.00
   12    3    9      1.79      0.00
   13    3    9      0.17      0.00
   14    3    9     -3.95      0.00
   15    3    9     -3.00      0.00
   16    3    9      2.57      0.00
   17    3    9      0.63      0.00
   18    3    9      2.01      0.00
   19    3    9      0.37      0.00
   20    3    9      1.87      0.00
   21    3    9      1.40      0.00
   22    3    9     -0.90      0.00
   23    3    9     -3.30      0.00
  -25    4    9      0.76      0.00
  -24    4    9     -2.43      0.00
  -23    4    9      3.72      0.00
  -22    4    9      0.09      0.00
  -21    4    9      0.17      0.00
  -20    4    9     -0.67      0.00
  -19    4    9     -1.04      0.00
  -18    4    9      0.31      0.00
  -17    4    9     -0.44      0.00
  -16    4    9     -2.49      0.00
  -15    4    9      1.40      0.00
  -14    4    9     -0.04      0.00
  -13    4    9      2.43      0.00
  -12    4    9     -2.72      0.00
  -11    4    9      1.92      0.00
  -10    4    9     -1.99      0.00
   -9    4    9      2.08      0.00
   -8    4    9      0.27      0.00
   -7    4    9      0.10      0.00
   -6    4    9     -3.06      0.00
   -5    4    9      3.46      0.00
   -4    4    9     -2.57      0.00
   -3    4    9      1.07      0.00
   -2    4    9     -1.95      0.00
   -1    4    9      1.63      0.00
    0    4    9     -4.21      0.00
    1    4    9     -1.96      0.00
    2    4    9     -2.42      0.00
    3    4    9      2.67      0.00
    4    4    9     -0.84      0.00
    5    4    9      3.94      0.00
    6    4    9     -0.84      0.00
    7    4    9      1.08      0.00
    8    4    9     -1.00      0.00
    9    4    9      0.87      0.00
   10    4    9     -4.50      0.00
   11    4    9     -0.41      0.00
   12    4    9     -3.36      0.00
   13    4    9      1.68      0.00
   14    4    9     -0.62      0.00
   15    4    9      2.88      0.00
   16    4    9      0.94      0.00
   17    4    9      0.62      0.00
   18    4    9      3.22      0.00
   19    4    9      2.49      0.00
   20    4    9     -1.21      0.00
   21    4    9      3.35      0.00
   22    4    9     -5.83      0.00
  -24    5    9      6.01      0.00
  -23    5    9     -0.98      0.00
  -22    5    9      0.51      0.00
  -21    5    9      0.98      0.00
  -20    5    9      1.08      0.00
  -19    5    9     -0.24      0.00
  -18    5    9      1.42      0.00
  -17    5    9     -1.50      0.00
  -16    5    9     -1.34      0.00
  -15    5    9     -2.01      0.00
  -14    5    9      1.09      0.00
  -13    5    9     -0.38      0.00
  -12    5    9      0.95      0.00
  -11    5    9     -0.31      0.00
  -10    5    9      0.36      0.00
   -9    5    9      1.02      0.00
   -8    5    9      1.03      0.00
   -7    5    9     -2.15      0.00
   -6    5    9     -0.46      0.00
   -5    5    9      0.03      0.00
   -4    5    9     -1.85      0.00
   -3    5    9      0.84      0.00
   -2    5    9     -3.02      0.00
   -1    5    9      0.97      0.00
    0    5    9      0.14      0.00
    1    5    9      1.60      0.00
    2    5    9     -1.93      0.00
    3    5    9      0.78      0.00
    4    5    9      0.13      0.00
    5    5    9     -1.59      0.00
    6    5    9      0.09      0.00
    7    5    9     -0.19      0.00
    8    5    9      0.32      0.00
    9    5    9     -1.92      0.00
   10    5    9     -0.60      0.00
   11    5    9      0.91      0.00
   12    5    9      1.71      0.00
   13    5    9     -1.55      0.00
   14    5    9      0.85      0.00
   15    5    9     -1.36      0.00
   16    5    9      1.60      0.00
   17    5    9      3.73      0.00
   18    5    9     -3.71      0.00
   19    5    9      3.93      0.00
   20    5    9     -1.22      0.00
  -22    6    9     -3.45      0.00
  -21    6    9     -1.98      0.00
  -20    6    9      0.56      0.00
  -19    6    9      0.36      0.00
  -18    6    9      3.71      0.00
  -17    6    9     -1.15      0.00
  -16    6    9     -1.89      0.00
  -15    6    9     -1.15      0.00
  -14    6    9     -0.68      0.00
  -13    6    9      3.93      0.00
  -12    6    9     -1.23      0.00
  -11    6    9      2.27      0.00
  -10    6    9     -1.17      0.00
   -9    6    9      1.07      0.00
   -8    6    9      0.63      0.00
   -7    6    9      1.47      0.00
   -6    6    9     -0.93      0.00
   -5    6    9      0.45      0.00
   -4    6    9      0.83      0.00
   -3    6    9      0.56      0.00
   -2    6    9     -0.15      0.00
   -1    6    9     -0.12      0.00
    0    6    9     -0.82      0.00
    1    6    9      0.69      0.00
    2    6    9     -1.05      0.00
    3    6    9      0.80      0.00
    4    6    9     -1.12      0.00
    5    6    9     -0.67      0.00
    6    6    9      0.51      0.00
    7    6    9      1.10      0.00
    8    6    9     -1.67      0.00
    9    6    9      1.62      0.00
   10    6    9      1.37      0.00
   11    6    9      2.56      0.00
   12    6    9     -3.02      0.00
   13    6    9      0.06      0.00
   14    6    9     -0.86      0.00
   15    6    9     -1.97      0.00
   16    6    9     -2.17      0.00
   17    6    9     -0.41      0.00
   18    6    9      2.19      0.00
   19    6    9     -0.16      0.00
  -20    7    9     -2.38      0.00
  -19    7    9      1.69      0.00
  -18    7    9      1.85      0.00
  -17    7    9     -0.67      0.00
  -16    7    9     -1.62      0.00
  -15    7    9     -1.31      0.00
  -14    7    9      2.10      0.00
  -13    7    9     -2.35      0.00
  -12    7    9     -2.64      0.00
  -11    7    9     -2.29      0.00
  -10    7    9      2.01      0.00
   -9    7    9     -0.01      0.00
   -8    7    9      1.00      0.00
   -7    7    9     -2.30      0.00
   -6    7    9     -0.28      0.00
   -5    7    9      1.00      0.00
   -4    7    9      2.09      0.00
   -3    7    9     -0.40      0.00
   -2    7    9     -1.05      0.00
   -1    7    9      0.85      0.00
    0    7    9      0.42      0.00
    1    7    9      1.25      0.00
    2    7    9      0.89      0.00
    3    7    9      0.52      0.00
    4    7    9     -1.10      0.00
    5    7    9      0.25      0.00
    6    7    9     -0.94      0.00
    7    7    9      2.00      0.00
    8    7    9      1.41      0.00
    9    7    9      3.76      0.00
   10    7    9     -0.05      0.00
   11    7    9      0.64      0.00
   12    7    9      1.22      0.00
   13    7    9      2.41      0.00
   14    7    9     -1.85      0.00
   15    7    9      1.83      0.00
   16    7    9      2.58      0.00
  -17    8    9     -0.57      0.00
  -16    8    9     -3.63      0.00
  -15    8    9      0.80      0.00
  -14    8    9     -0.39      0.00
  -13    8    9      2.95      0.00
  -12    8    9     -0.37      0.00
  -11    8    9      0.17      0.00
  -10    8    9     -1.70      0.00
   -9    8    9     -1.68      0.00
   -8    8    9      1.97      0.00
   -7    8    9      1.19      0.00
   -6    8    9      0.85      0.00
   -5    8    9     -1.64      0.00
   -4    8    9      2.32      0.00
   -3    8    9     -1.34      0.00
   -2    8    9     -2.41      0.00
   -1    8    9     -0.17      0.00
    0    8    9     -0.97      0.00
    1    8    9     -1.78      0.00
    2    8    9      1.04      0.00
    3    8    9     -3.59      0.00
    4    8    9     -1.43      0.00
    5    8    9      1.17      0.00
    6    8    9     -1.38      0.00
    7    8    9      3.41      0.00
    8    8    9     -0.89      0.00
    9    8    9     -2.45      0.00
   10    8    9     -1.04      0.00
   11    8    9      1.32      0.00
   12    8    9     -0.49      0.00
   13    8    9      1.12      0.00
  -12    9    9     -4.31      0.00
  -11    9    9      5.93      0.00
  -10    9    9      0.60      0.00
   -9    9    9      0.44      0.00
   -8    9    9      5.43      0.00
   -7    9    9      1.91      0.00
   -6    9    9      0.99      0.00
   -5    9    9      3.43      0.00
   -4    9    9     -4.40      0.00
   -3    9    9      2.55      0.00
   -2    9    9     -3.42      0.00
   -1    9    9     -5.40      0.00
    0    9    9     -0.67      0.00
    1    9    9      0.18      0.00
    2    9    9     -1.24      0.00
    3    9    9     -4.44      0.00
    4    9    9      0.68      0.00
    5    9    9     10.78      0.00
    6    9    9     -0.52      0.00
    7    9    9     -6.43      0.00
    8    9    9     -1.24      0.00
    9    9    9     -1.70      0.00
  -26    0   10      2.94      0.00
  -24    0   10     -1.59      0.00
  -22    0   10     -4.47      0.00
  -20    0   10      0.85      0.00
  -18    0   10     -2.26      0.00
  -16    0   10      1.08      0.00
  -14    0   10      0.66      0.00
  -12    0   10     -2.18      0.00
  -10    0   10     -6.21      0.00
   -8    0   10     -5.76      0.00
   -6    0   10      2.32      0.00
   -4    0   10     30.95      0.00
   -2    0   10     -6.13      0.00
    0    0   10    -26.30      0.00
    2    0   10     -0.39      0.00
    4    0   10     -3.56      0.00
    6    0   10     -4.48      0.00
    8    0   10     -5.63      0.00
   10    0   10      2.96      0.00
   12    0   10      2.99      0.00
   14    0   10      0.54      0.00
   16    0   10      2.31      0.00
   18    0   10      0.96      0.00
   20    0   10      2.32      0.00
   22    0   10     -1.40      0.00
   24    0   10     -1.93      0.00
  -27    1   10      3.67      0.00
  -26    1   10      2.07      0.00
  -25    1   10      2.05      0.00
  -24    1   10      0.50      0.00
  -23    1   10     -0.59      0.00
  -22    1   10     -3.93      0.00
  -21    1   10      1.18      0.00
  -20    1   10      0.49      0.00
  -19    1   10     -0.28      0.00
  -18    1   10      0.73      0.00
  -17    1   10      0.80      0.00
  -16    1   10      1.43      0.00
  -15    1   10     -0.29      0.00
  -14    1   10      1.96      0.00
  -13    1   10     -1.57      0.00
  -12    1   10      2.07      0.00
  -11    1   10     -4.44      0.00
  -10    1   10      2.89      0.00
   -9    1   10     -3.86      0.00
   -8    1   10      2.63      0.00
   -7    1   10      2.87      0.00
   -6    1   10      2.73      0.00
   -5    1   10      7.30      0.00
   -4    1   10      7.92      0.00
   -3    1   10     14.91      0.00
   -2    1   10    -23.66      0.00
   -1    1   10     14.86      0.00
    0    1   10      5.17      0.00
    1    1   10      0.73      0.00
    2    1   10     13.29      0.00
    3    1   10     -0.11      0.00
    4    1   10      5.18      0.00
    5    1   10      1.82      0.00
    6    1   10      3.77      0.00
    7    1   10     -5.15      0.00
    8    1   10      1.60      0.00
    9    1   10     -3.62      0.00
   10    1   10      4.16      0.00
   11    1   10      1.15      0.00
   12    1   10      1.34      0.00
   13    1   10      0.94      0.00
   14    1   10     -0.42      0.00
   15    1   10      1.22      0.00
   16    1   10      1.21      0.00
   17    1   10     -0.41      0.00
   18    1   10      1.16      0.00
   19    1   10     -2.89      0.00
   20    1   10      0.67      0.00
   21    1   10     -0.17      0.00
   22    1   10      0.47      0.00
   23    1   10     -1.11      0.00
   24    1   10     -3.69      0.00
  -27    2   10     -0.13      0.00
  -26    2   10     -0.14      0.00
  -25    2   10      0.66      0.00
  -24    2   10     -1.55      0.00
  -23    2   10     -0.31      0.00
  -22    2   10      0.92      0.00
  -21    2   10      2.33      0.00
  -20    2   10      2.00      0.00
  -19    2   10      0.54      0.00
  -18    2   10     -1.55      0.00
  -17    2   10      3.18      0.00
  -16    2   10     -0.34      0.00
  -15    2   10      3.02      0.00
  -14    2   10      0.35      0.00
  -13    2   10      2.21      0.00
  -12    2   10     -3.75      0.00
  -11    2   10      1.87      0.00
  -10    2   10     -4.39      0.00
   -9    2   10      0.37      0.00
   -8    2   10     -5.14      0.00
   -7    2   10      4.47      0.00
   -6    2   10      0.47      0.00
   -5    2   10      3.19      0.00
   -4    2   10      4.77      0.00
   -3    2   10      3.68      0.00
   -2    2   10      2.79      0.00
   -1    2   10     -2.91      0.00
    0    2   10     18.35      0.00
    1    2   10     -6.29      0.00
    2    2   10      5.67      0.00
    3    2   10     -0.01      0.00
    4    2   10      1.88      0.00
    5    2   10     -2.63      0.00
    6    2   10     -4.61      0.00
    7    2   10     -0.16      0.00
    8    2   10     -3.38      0.00
    9    2   10      3.75      0.00
   10    2   10     -2.66      0.00
   11    2   10      0.51      0.00
   12    2   10      3.97      0.00
   13    2   10      2.55      0.00
   14    2   10      1.53      0.00
   15    2   10     -1.55      0.00
   16    2   10      1.15      0.00
   17    2   10      2.88      0.00
   18    2   10      2.39      0.00
   19    2   10      0.52      0.00
   20    2   10      2.99      0.00
   21    2   10     -2.01      0.00
   22    2   10     -4.66      0.00
   23    2   10      0.77      0.00
  -26    3   10      1.90      0.00
  -25    3   10     -1.51      0.00
  -24    3   10      1.00      0.00
  -23    3   10     -2.98      0.00
  -22    3   10     -1.55      0.00
  -21    3   10      0.92      0.00
  -20    3   10      0.74      0.00
  -19    3   10     -0.98      0.00
  -18    3   10      0.06      0.00
  -17    3   10     -0.49      0.00
  -16    3   10     -0.48      0.00
  -15    3   10     -1.89      0.00
  -14    3   10      1.57      0.00
  -13    3   10     -2.81      0.00
  -12    3   10      1.19      0.00
  -11    3   10     -4.28      0.00
  -10    3   10      4.80      0.00
   -9    3   10     -2.25      0.00
   -8    3   10      1.03      0.00
   -7    3   10      2.90      0.00
   -6    3   10      6.03      0.00
   -5    3   10     -0.05      0.00
   -4    3   10     11.57      0.00
   -3    3   10      3.24      0.00
   -2    3   10      5.72      0.00
   -1    3   10     -4.82      0.00
    0    3   10      4.37      0.00
    1    3   10     -3.34      0.00
    2    3   10      3.61      0.00
    3    3   10     -0.02      0.00
    4    3   10      6.27      0.00
    5    3   10      0.82      0.00
    6    3   10      1.29      0.00
    7    3   10     -0.74      0.00
    8    3   10     -0.01      0.00
    9    3   10     -0.14      0.00
   10    3   10      3.98      0.00
   11    3   10      0.74      0.00
   12    3   10      2.15      0.00
   13    3   10     -2.72      0.00
   14    3   10     -0.11      0.00
   15    3   10      2.08      0.00
   16    3   10      1.75      0.00
   17    3   10      0.98      0.00
   18    3   10      0.63      0.00
   19    3   10     -2.56      0.00
   20    3   10      1.54      0.00
   21    3   10     -3.95      0.00
   22    3   10     -3.39      0.00
  -25    4   10     -0.69      0.00
  -24    4   10      1.30      0.00
  -23    4   10      4.97      0.00
  -22    4   10     -1.97      0.00
  -21    4   10     -0.08      0.00
  -20    4   10      0.54      0.00
  -19    4   10      0.26      0.00
  -18    4   10      0.23      0.00
  -17    4   10     -1.02      0.00
  -16    4   10      0.98      0.00
  -15    4   10      1.97      0.00
  -14    4   10      0.28      0.00
  -13    4   10     -0.47      0.00
  -12    4   10     -1.60      0.00
  -11    4   10      1.18      0.00
  -10    4   10      0.74      0.00
   -9    4   10      1.87      0.00
   -8    4   10      0.30      0.00
   -7    4   10     -0.77      0.00
   -6    4   10      4.73      0.00
   -5    4   10      0.40      0.00
   -4    4   10      3.22      0.00
   -3    4   10      1.03      0.00
   -2    4   10      2.90      0.00
   -1    4   10     -0.46      0.00
    0    4   10     -2.24      0.00
    1    4   10      2.46      0.00
    2    4   10      2.76      0.00
    3    4   10      3.94      0.00
    4    4   10      2.23      0.00
    5    4   10      2.41      0.00
    6    4   10     -3.62      0.00
    7    4   10      1.40      0.00
    8    4   10     -1.46      0.00
    9    4   10     -1.30      0.00
   10    4   10     -1.50      0.00
   11    4   10      0.01      0.00
   12    4   10      1.15      0.00
   13    4   10      3.04      0.00
   14    4   10      0.18      0.00
   15    4   10      3.56      0.00
   16    4   10     -1.10      0.00
   17    4   10      0.59      0.00
   18    4   10      1.35      0.00
   19    4   10     -2.61      0.00
   20    4   10      2.61      0.00
   21    4   10     -6.44      0.00
  -24    5   10     -1.22      0.00
  -23    5   10     -6.79      0.00
  -22    5   10     -1.91      0.00
  -21    5   10      0.65      0.00
  -20    5   10     -2.32      0.00
  -19    5   10      1.55      0.00
  -18    5   10      0.92      0.00
  -17    5   10     -1.06      0.00
  -16    5   10      1.12      0.00
  -15    5   10      0.81      0.00
  -14    5   10      1.20      0.00
  -13    5   10     -1.93      0.00
  -12    5   10      1.37      0.00
  -11    5   10     -2.74      0.00
  -10    5   10      1.81      0.00
   -9    5   10     -0.50      0.00
   -8    5   10     -0.84      0.00
   -7    5   10     -1.30      0.00
   -6    5   10      2.65      0.00
   -5    5   10     -0.16      0.00
   -4    5   10     -0.32      0.00
   -3    5   10      0.64      0.00
   -2    5   10     -0.56      0.00
   -1    5   10      2.29      0.00
    0    5   10     -0.99      0.00
    1    5   10     -2.10      0.00
    2    5   10      0.47      0.00
    3    5   10      0.21      0.00
    4    5   10     -0.21      0.00
    5    5   10     -1.08      0.00
    6    5   10      1.34      0.00
    7    5   10     -0.92      0.00
    8    5   10     -0.49      0.00
    9    5   10     -1.49      0.00
   10    5   10      1.55      0.00
   11    5   10      0.88      0.00
   12    5   10     -0.93      0.00
   13    5   10     -2.81      0.00
   14    5   10      0.15      0.00
   15    5   10     -3.76      0.00
   16    5   10      0.84      0.00
   17    5   10     -4.78      0.00
   18    5   10     -3.56      0.00
   19    5   10     -0.07      0.00
   20    5   10     -8.08      0.00
  -22    6   10     -2.30      0.00
  -21    6   10      1.43      0.00
  -20    6   10     -0.53      0.00
  -19    6   10      2.15      0.00
  -18    6   10     -1.24      0.00
  -17    6   10     -0.76      0.00
  -16    6   10     -1.59      0.00
  -15    6   10      0.48      0.00
  -14    6   10      1.04      0.00
  -13    6   10      0.17      0.00
  -12    6   10     -1.12      0.00
  -11    6   10      0.84      0.00
  -10    6   10     -2.50      0.00
   -9    6   10      1.69      0.00
   -8    6   10     -0.80      0.00
   -7    6   10      0.92      0.00
   -6    6   10     -1.75      0.00
   -5    6   10      2.10      0.00
   -4    6   10     -0.67      0.00
   -3    6   10      0.20      0.00
   -2    6   10     -0.19      0.00
   -1    6   10     -0.51      0.00
    0    6   10     -0.05      0.00
    1    6   10     -0.83      0.00
    2    6   10      0.02      0.00
    3    6   10      0.11      0.00
    4    6   10     -0.85      0.00
    5    6   10      0.78      0.00
    6    6   10      1.30      0.00
    7    6   10     -1.45      0.00
    8    6   10      0.13      0.00
    9    6   10      0.77      0.00
   10    6   10      2.44      0.00
   11    6   10     -1.18      0.00
   12    6   10      0.00      0.00
   13    6   10      1.64      0.00
   14    6   10     -1.23      0.00
   15    6   10      1.72      0.00
   16    6   10      0.60      0.00
   17    6   10      2.86      0.00
   18    6   10     -0.02      0.00
  -20    7   10      2.44      0.00
  -19    7   10      2.92      0.00
  -18    7   10      1.65      0.00
  -17    7   10     -2.30      0.00
  -16    7   10      0.34      0.00
  -15    7   10     -1.85      0.00
  -14    7   10     -1.35      0.00
  -13    7   10     -5.03      0.00
  -12    7   10      0.24      0.00
  -11    7   10     -0.19      0.00
  -10    7   10      0.15      0.00
   -9    7   10     -0.45      0.00
   -8    7   10     -0.37      0.00
   -7    7   10     -0.04      0.00
   -6    7   10      1.27      0.00
   -5    7   10      0.91      0.00
   -4    7   10     -1.59      0.00
   -3    7   10     -0.13      0.00
   -2    7   10     -0.94      0.00
   -1    7   10     -0.35      0.00
    0    7   10     -0.87      0.00
    1    7   10     -1.03      0.00
    2    7   10     -2.52      0.00
    3    7   10     -0.65      0.00
    4    7   10     -0.69      0.00
    5    7   10      0.01      0.00
    6    7   10      0.83      0.00
    7    7   10      1.93      0.00
    8    7   10      0.87      0.00
    9    7   10      0.14      0.00
   10    7   10     -2.35      0.00
   11    7   10     -0.82      0.00
   12    7   10      0.59      0.00
   13    7   10     -0.31      0.00
   14    7   10     -0.48      0.00
   15    7   10      2.09      0.00
   16    7   10     -0.94      0.00
  -16    8   10      2.13      0.00
  -15    8   10      0.48      0.00
  -14    8   10      2.25      0.00
  -13    8   10      2.26      0.00
  -12    8   10     -1.76      0.00
  -11    8   10      0.33      0.00
  -10    8   10     -1.18      0.00
   -9    8   10      1.05      0.00
   -8    8   10      1.34      0.00
   -7    8   10      1.42      0.00
   -6    8   10     -0.21      0.00
   -5    8   10      0.89      0.00
   -4    8   10     -0.01      0.00
   -3    8   10     -3.95      0.00
   -2    8   10      2.06      0.00
   -1    8   10     -0.58      0.00
    0    8   10     -1.66      0.00
    1    8   10     -0.27      0.00
    2    8   10     -2.13      0.00
    3    8   10     -2.83      0.00
    4    8   10      0.98      0.00
    5    8   10     -1.43      0.00
    6    8   10      1.51      0.00
    7    8   10     -0.12      0.00
    8    8   10     -5.29      0.00
    9    8   10      1.32      0.00
   10    8   10     -0.08      0.00
   11    8   10     -0.50      0.00
   12    8   10      0.79      0.00
   13    8   10     -1.39      0.00
  -12    9   10      5.55      0.00
  -11    9   10     -0.06      0.00
  -10    9   10      0.08      0.00
   -9    9   10      3.99      0.00
   -8    9   10      2.82      0.00
   -7    9   10     -1.25      0.00
   -6    9   10      0.33      0.00
   -5    9   10     -5.30      0.00
   -4    9   10      0.57      0.00
   -3    9   10      1.70      0.00
   -2    9   10     -3.92      0.00
   -1    9   10      3.34      0.00
    0    9   10      2.10      0.00
    1    9   10      1.21      0.00
    2    9   10     -3.48      0.00
    3    9   10      0.78      0.00
    4    9   10      9.24      0.00
    5    9   10     -0.85      0.00
    6    9   10     -9.32      0.00
    7    9   10     -0.26      0.00
    8    9   10      1.28      0.00
    9    9   10      2.18      0.00
  -27    0   11      3.26      0.00
  -25    0   11     -0.56      0.00
  -23    0   11     -5.75      0.00
  -21    0   11     -0.40      0.00
  -19    0   11     -3.44      0.00
  -17    0   11      1.01      0.00
  -15    0   11      2.87      0.00
  -13    0   11      2.54      0.00
  -11    0   11      3.71      0.00
   -9    0   11      5.56      0.00
   -7    0   11      7.14      0.00
   -5    0   11      4.73      0.00
   -3    0   11    -26.89      0.00
   -1    0   11    -25.26      0.00
    1    0   11     10.26      0.00
    3    0   11      9.85      0.00
    5    0   11      8.66      0.00
    7    0   11      4.83      0.00
    9    0   11      7.34      0.00
   11    0   11      0.92      0.00
   13    0   11     -3.63      0.00
   15    0   11      0.50      0.00
   17    0   11     -0.85      0.00
   19    0   11      1.32      0.00
   21    0   11     -2.02      0.00
   23    0   11     -1.49      0.00
  -27    1   11     -0.51      0.00
  -26    1   11      1.98      0.00
  -25    1   11     -0.24      0.00
  -24    1   11     -1.13      0.00
  -23    1   11     -2.22      0.00
  -22    1   11      0.22      0.00
  -21    1   11      3.28      0.00
  -20    1   11     -1.86      0.00
  -19    1   11      0.77      0.00
  -18    1   11      1.32      0.00
  -17    1   11      1.22      0.00
  -16    1   11      0.52      0.00
  -15    1   11     -1.34      0.00
  -14    1   11      1.69      0.00
  -13    1   11     -1.56      0.00
  -12    1   11      1.68      0.00
  -11    1   11     -0.48      0.00
  -10    1   11      3.75      0.00
   -9    1   11     -3.42      0.00
   -8    1   11      3.08      0.00
   -7    1   11     -2.62      0.00
   -6    1   11     -3.80      0.00
   -5    1   11     -1.22      0.00
   -4    1   11     -8.91      0.00
   -3    1   11    -13.10      0.00
   -2    1   11    -13.06      0.00
   -1    1   11     11.58      0.00
    0    1   11     -9.44      0.00
    1    1   11     12.44      0.00
    2    1   11      0.99      0.00
    3    1   11     -0.18      0.00
    4    1   11      3.94      0.00
    5    1   11     -0.22      0.00
    6    1   11     -0.73      0.00
    7    1   11     -2.86      0.00
    8    1   11     -0.03      0.00
    9    1   11      0.93      0.00
   10    1   11      1.27      0.00
   11    1   11     -2.53      0.00
   12    1   11     -1.73      0.00
   13    1   11     -2.36      0.00
   14    1   11     -2.78      0.00
   15    1   11      0.43      0.00
   16    1   11     -0.64      0.00
   17    1   11      1.74      0.00
   18    1   11     -0.76      0.00
   19    1   11      0.28      0.00
   20    1   11      1.66      0.00
   21    1   11      0.23      0.00
   22    1   11      1.18      0.00
   23    1   11     -1.53      0.00
  -27    2   11      2.58      0.00
  -26    2   11     -1.02      0.00
  -25    2   11      3.17      0.00
  -24    2   11     -3.07      0.00
  -23    2   11      2.00      0.00
  -22    2   11      1.20      0.00
  -21    2   11      0.41      0.00
  -20    2   11     -1.11      0.00
  -19    2   11     -2.96      0.00
  -18    2   11      0.62      0.00
  -17    2   11      1.21      0.00
  -16    2   11     -2.18      0.00
  -15    2   11      1.62      0.00
  -14    2   11     -2.35      0.00
  -13    2   11      1.39      0.00
  -12    2   11     -3.65      0.00
  -11    2   11      2.66      0.00
  -10    2   11     -4.50      0.00
   -9    2   11      1.94      0.00
   -8    2   11     -2.98      0.00
   -7    2   11     -0.03      0.00
   -6    2   11     -5.95      0.00
   -5    2   11     -0.07      0.00
   -4    2   11     -2.99      0.00
   -3    2   11     -7.48      0.00
   -2    2   11     -7.74      0.00
   -1    2   11      6.46      0.00
    0    2   11     -6.71      0.00
    1    2   11      0.85      0.00
    2    2   11     -0.30      0.00
    3    2   11      0.76      0.00
    4    2   11     -3.79      0.00
    5    2   11     -2.35      0.00
    6    2   11     -1.24      0.00
    7    2   11      0.00      0.00
    8    2   11     -0.43      0.00
    9    2   11     -1.07      0.00
   10    2   11     -2.90      0.00
   11    2   11      2.20      0.00
   12    2   11      0.28      0.00
   13    2   11     -1.55      0.00
   14    2   11     -1.38      0.00
   15    2   11     -0.94      0.00
   16    2   11      3.76      0.00
   17    2   11      1.77      0.00
   18    2   11      0.19      0.00
   19    2   11      0.08      0.00
   20    2   11     -2.37      0.00
   21    2   11     -0.64      0.00
   22    2   11      0.92      0.00
   23    2   11      1.02      0.00
  -26    3   11     -1.56      0.00
  -25    3   11     -0.44      0.00
  -24    3   11     -0.79      0.00
  -23    3   11     -0.90      0.00
  -22    3   11      1.88      0.00
  -21    3   11     -0.09      0.00
  -20    3   11     -1.70      0.00
  -19    3   11     -0.86      0.00
  -18    3   11      0.20      0.00
  -17    3   11     -0.61      0.00
  -16    3   11      0.17      0.00
  -15    3   11      0.72      0.00
  -14    3   11      2.58      0.00
  -13    3   11     -0.57      0.00
  -12    3   11      1.74      0.00
  -11    3   11      0.90      0.00
  -10    3   11      2.71      0.00
   -9    3   11     -2.33      0.00
   -8    3   11      3.20      0.00
   -7    3   11      0.43      0.00
   -6    3   11     -3.96      0.00
   -5    3   11      3.48      0.00
   -4    3   11     -2.08      0.00
   -3    3   11     -6.35      0.00
   -2    3   11     -7.86      0.00
   -1    3   11     -2.38      0.00
    0    3   11      0.98      0.00
    1    3   11     -4.31      0.00
    2    3   11      5.99      0.00
    3    3   11      0.05      0.00
    4    3   11      5.04      0.00
    5    3   11     -5.74      0.00
    6    3   11      1.64      0.00
    7    3   11     -5.28      0.00
    8    3   11      1.81      0.00
    9    3   11     -0.51      0.00
   10    3   11     -0.94      0.00
   11    3   11     -3.29      0.00
   12    3   11     -1.87      0.00
   13    3   11     -2.15      0.00
   14    3   11      1.86      0.00
   15    3   11      0.06      0.00
   16    3   11      2.32      0.00
   17    3   11      1.83      0.00
   18    3   11     -0.79      0.00
   19    3   11      2.35      0.00
   20    3   11      0.46      0.00
   21    3   11     -2.17      0.00
   22    3   11      1.93      0.00
  -25    4   11      2.49      0.00
  -24    4   11      2.94      0.00
  -23    4   11     -0.19      0.00
  -22    4   11     -4.36      0.00
  -21    4   11      0.94      0.00
  -20    4   11      0.57      0.00
  -19    4   11     -1.27      0.00
  -18    4   11      0.99      0.00
  -17    4   11      0.23      0.00
  -16    4   11      1.09      0.00
  -15    4   11      0.84      0.00
  -14    4   11     -1.86      0.00
  -13    4   11      0.80      0.00
  -12    4   11     -1.21      0.00
  -11    4   11      3.77      0.00
  -10    4   11     -0.74      0.00
   -9    4   11      0.57      0.00
   -8    4   11     -2.75      0.00
   -7    4   11      0.48      0.00
   -6    4   11     -2.70      0.00
   -5    4   11     -3.28      0.00
   -4    4   11     -1.17      0.00
   -3    4   11     -7.19      0.00
   -2    4   11     -1.19      0.00
   -1    4   11     -7.23      0.00
    0    4   11      1.60      0.00
    1    4   11      0.76      0.00
    2    4   11      1.36      0.00
    3    4   11      0.73      0.00
    4    4   11     -1.98      0.00
    5    4   11     -4.21      0.00
    6    4   11     -3.51      0.00
    7    4   11      0.91      0.00
    8    4   11     -3.71      0.00
    9    4   11      0.88      0.00
   10    4   11     -1.52      0.00
   11    4   11      1.77      0.00
   12    4   11      1.82      0.00
   13    4   11      1.20      0.00
   14    4   11      0.50      0.00
   15    4   11      0.46      0.00
   16    4   11     -2.01      0.00
   17    4   11      0.47      0.00
   18    4   11     -0.41      0.00
   19    4   11      0.12      0.00
   20    4   11     -3.63      0.00
   21    4   11     -4.19      0.00
  -24    5   11     -4.88      0.00
  -23    5   11     -3.83      0.00
  -22    5   11      4.15      0.00
  -21    5   11     -0.65      0.00
  -20    5   11      0.00      0.00
  -19    5   11      5.28      0.00
  -18    5   11     -1.99      0.00
  -17    5   11      0.54      0.00
  -16    5   11      1.74      0.00
  -15    5   11     -2.67      0.00
  -14    5   11      0.56      0.00
  -13    5   11     -2.25      0.00
  -12    5   11      1.43      0.00
  -11    5   11     -1.34      0.00
  -10    5   11      3.10      0.00
   -9    5   11     -2.72      0.00
   -8    5   11      0.79      0.00
   -7    5   11      0.50      0.00
   -6    5   11      1.44      0.00
   -5    5   11     -3.00      0.00
   -4    5   11      0.39      0.00
   -3    5   11     -0.56      0.00
   -2    5   11      1.21      0.00
   -1    5   11     -1.03      0.00
    0    5   11     -1.11      0.00
    1    5   11      0.18      0.00
    2    5   11      1.81      0.00
    3    5   11     -1.79      0.00
    4    5   11     -0.14      0.00
    5    5   11     -1.86      0.00
    6    5   11      0.86      0.00
    7    5   11     -2.24      0.00
    8    5   11      0.81      0.00
    9    5   11      0.27      0.00
   10    5   11      1.85      0.00
   11    5   11     -0.63      0.00
   12    5   11     -1.02      0.00
   13    5   11     -0.63      0.00
   14    5   11     -0.54      0.00
   15    5   11     -1.73      0.00
   16    5   11      1.78      0.00
   17    5   11     -3.99      0.00
   18    5   11      3.89      0.00
   19    5   11     -2.14      0.00
   20    5   11      2.34      0.00
  -22    6   11      2.70      0.00
  -21    6   11      1.37      0.00
  -20    6   11      1.68      0.00
  -19    6   11     -0.26      0.00
  -18    6   11     -1.41      0.00
  -17    6   11     -1.25      0.00
  -16    6   11     -2.21      0.00
  -15    6   11      1.03      0.00
  -14    6   11     -1.40      0.00
  -13    6   11      1.07      0.00
  -12    6   11      0.46      0.00
  -11    6   11     -0.26      0.00
  -10    6   11      0.47      0.00
   -9    6   11     -0.10      0.00
   -8    6   11      0.08      0.00
   -7    6   11     -1.40      0.00
   -6    6   11      0.53      0.00
   -5    6   11     -1.19      0.00
   -4    6   11     -1.34      0.00
   -3    6   11      0.14      0.00
   -2    6   11      0.14      0.00
   -1    6   11      0.36      0.00
    0    6   11     -0.35      0.00
    1    6   11      0.95      0.00
    2    6   11      2.22      0.00
    3    6   11      0.13      0.00
    4    6   11      1.24      0.00
    5    6   11      1.33      0.00
    6    6   11     -0.97      0.00
    7    6   11     -0.09      0.00
    8    6   11      1.03      0.00
    9    6   11      2.70      0.00
   10    6   11      1.27      0.00
   11    6   11     -0.74      0.00
   12    6   11      2.02      0.00
   13    6   11      0.52      0.00
   14    6   11      2.61      0.00
   15    6   11      2.26      0.00
   16    6   11      3.41      0.00
   17    6   11      1.81      0.00
   18    6   11      2.24      0.00
  -19    7   11      1.13      0.00
  -18    7   11     -1.09      0.00
  -17    7   11     -0.30      0.00
  -16    7   11      0.53      0.00
  -15    7   11     -0.05      0.00
  -14    7   11      0.30      0.00
  -13    7   11      1.33      0.00
  -12    7   11      3.13      0.00
  -11    7   11     -1.76      0.00
  -10    7   11      0.57      0.00
   -9    7   11      0.48      0.00
   -8    7   11     -0.48      0.00
   -7    7   11      0.10      0.00
   -6    7   11     -0.25      0.00
   -5    7   11     -1.93      0.00
   -4    7   11      0.22      0.00
   -3    7   11     -0.68      0.00
   -2    7   11     -1.28      0.00
   -1    7   11     -1.84      0.00
    0    7   11     -0.69      0.00
    1    7   11     -1.31      0.00
    2    7   11      0.76      0.00
    3    7   11      2.05      0.00
    4    7   11      0.99      0.00
    5    7   11      0.98      0.00
    6    7   11      2.57      0.00
    7    7   11     -0.54      0.00
    8    7   11      0.07      0.00
    9    7   11     -2.44      0.00
   10    7   11     -2.60      0.00
   11    7   11     -0.97      0.00
   12    7   11     -0.87      0.00
   13    7   11     -3.26      0.00
   14    7   11      0.08      0.00
   15    7   11     -1.99      0.00
   16    7   11     -1.86      0.00
  -16    8   11      1.06      0.00
  -15    8   11     -0.37      0.00
  -14    8   11      2.69      0.00
  -13    8   11     -1.21      0.00
  -12    8   11     -1.71      0.00
  -11    8   11      0.36      0.00
  -10    8   11     -2.51      0.00
   -9    8   11      2.61      0.00
   -8    8   11      0.65      0.00
   -7    8   11      0.41      0.00
   -6    8   11     -0.14      0.00
   -5    8   11     -1.09      0.00
   -4    8   11     -2.92      0.00
   -3    8   11      1.56      0.00
   -2    8   11      1.15      0.00
   -1    8   11     -1.56      0.00
    0    8   11      0.31      0.00
    1    8   11      0.01      0.00
    2    8   11      0.86      0.00
    3    8   11      1.04      0.00
    4    8   11      0.54      0.00
    5    8   11      2.27      0.00
    6    8   11      0.37      0.00
    7    8   11     -2.51      0.00
    8    8   11      1.68      0.00
    9    8   11      2.42      0.00
   10    8   11      0.02      0.00
   11    8   11      1.45      0.00
   12    8   11      1.15      0.00
   13    8   11     -2.52      0.00
  -12    9   11      1.65      0.00
  -11    9   11     -2.84      0.00
  -10    9   11      5.37      0.00
   -9    9   11     -0.41      0.00
   -8    9   11     -1.06      0.00
   -7    9   11     -2.77      0.00
   -6    9   11     -5.40      0.00
   -5    9   11     -0.03      0.00
   -4    9   11      2.16      0.00
   -3    9   11     -1.33      0.00
   -2    9   11      0.37      0.00
   -1    9   11      1.96      0.00
    0    9   11     -1.23      0.00
    1    9   11     -0.24      0.00
    2    9   11     -0.83      0.00
    3    9   11      9.77      0.00
    4    9   11     -0.12      0.00
    5    9   11     -8.57      0.00
    6    9   11      2.39      0.00
    7    9   11      3.70      0.00
    8    9   11      2.82      0.00
  -26    0   12     -1.00      0.00
  -24    0   12     -2.71      0.00
  -22    0   12      3.78      0.00
  -20    0   12      0.12      0.00
  -18    0   12      0.92      0.00
  -16    0   12      2.69      0.00
  -14    0   12     -2.17      0.00
  -12    0   12     -3.09      0.00
  -10    0   12     -1.34      0.00
   -8    0   12      2.84      0.00
   -6    0   12      2.53      0.00
   -4    0   12     -4.04      0.00
   -2    0   12      4.43      0.00
    0    0   12     16.97      0.00
    2    0   12      0.15      0.00
    4    0   12     -4.09      0.00
    6    0   12     -4.32      0.00
    8    0   12      1.01      0.00
   10    0   12     -1.14      0.00
   12    0   12     -2.52      0.00
   14    0   12      2.42      0.00
   16    0   12     -1.25      0.00
   18    0   12      1.09      0.00
   20    0   12      0.20      0.00
   22    0   12      1.39      0.00
  -27    1   12     -1.44      0.00
  -26    1   12      2.91      0.00
  -25    1   12     -3.87      0.00
  -24    1   12     -0.97      0.00
  -23    1   12     -2.48      0.00
  -22    1   12      4.76      0.00
  -21    1   12     -1.77      0.00
  -20    1   12      0.73      0.00
  -19    1   12      2.40      0.00
  -18    1   12      1.16      0.00
  -17    1   12     -1.18      0.00
  -16    1   12     -1.30      0.00
  -15    1   12     -1.50      0.00
  -14    1   12      0.61      0.00
  -13    1   12     -3.66      0.00
  -12    1   12      2.72      0.00
  -11    1   12     -2.00      0.00
  -10    1   12     -0.97      0.00
   -9    1   12     -2.27      0.00
   -8    1   12      1.01      0.00
   -7    1   12     -3.57      0.00
   -6    1   12     -1.23      0.00
   -5    1   12     -0.23      0.00
   -4    1   12     -2.84      0.00
   -3    1   12      4.86      0.00
   -2    1   12      8.67      0.00
   -1    1   12      7.69      0.00
    0    1   12      6.37      0.00
    1    1   12      2.79      0.00
    2    1   12     -3.88      0.00
    3    1   12     -3.95      0.00
    4    1   12      0.07      0.00
    5    1   12     -6.57      0.00
    6    1   12     -1.28      0.00
    7    1   12     -3.68      0.00
    8    1   12      2.55      0.00
    9    1   12      1.22      0.00
   10    1   12     -2.34      0.00
   11    1   12      1.94      0.00
   12    1   12     -0.95      0.00
   13    1   12      0.83      0.00
   14    1   12      0.80      0.00
   15    1   12      4.25      0.00
   16    1   12      1.02      0.00
   17    1   12      0.48      0.00
   18    1   12     -1.00      0.00
   19    1   12      0.18      0.00
   20    1   12     -0.64      0.00
   21    1   12      0.86      0.00
   22    1   12     -0.11      0.00
   23    1   12      3.25      0.00
  -27    2   12      4.15      0.00
  -26    2   12      1.17      0.00
  -25    2   12     -2.72      0.00
  -24    2   12     -2.86      0.00
  -23    2   12      1.26      0.00
  -22    2   12     -0.75      0.00
  -21    2   12     -1.35      0.00
  -20    2   12     -0.98      0.00
  -19    2   12      0.71      0.00
  -18    2   12      2.05      0.00
  -17    2   12     -1.18      0.00
  -16    2   12     -1.04      0.00
  -15    2   12      1.35      0.00
  -14    2   12     -1.20      0.00
  -13    2   12      0.81      0.00
  -12    2   12     -3.20      0.00
  -11    2   12      2.76      0.00
  -10    2   12     -3.61      0.00
   -9    2   12      5.01      0.00
   -8    2   12     -2.52      0.00
   -7    2   12      4.50      0.00
   -6    2   12      4.75      0.00
   -5    2   12      7.43      0.00
   -4    2   12      1.96      0.00
   -3    2   12      1.81      0.00
   -2    2   12     11.72      0.00
   -1    2   12      2.87      0.00
    0    2   12      1.88      0.00
    1    2   12      6.67      0.00
    2    2   12     -6.26      0.00
    3    2   12      4.07      0.00
    4    2   12     -7.40      0.00
    5    2   12      7.04      0.00
    6    2   12     -4.39      0.00
    7    2   12      4.46      0.00
    8    2   12     -2.60      0.00
    9    2   12      1.82      0.00
   10    2   12      3.53      0.00
   11    2   12      2.69      0.00
   12    2   12     -0.16      0.00
   13    2   12      1.09      0.00
   14    2   12      0.45      0.00
   15    2   12      3.42      0.00
   16    2   12      2.02      0.00
   17    2   12     -1.67      0.00
   18    2   12     -3.04      0.00
   19    2   12     -1.72      0.00
   20    2   12     -0.35      0.00
   21    2   12      1.67      0.00
   22    2   12     -2.74      0.00
  -26    3   12     -0.01      0.00
  -25    3   12     -1.62      0.00
  -24    3   12      0.17      0.00
  -23    3   12      1.35      0.00
  -22    3   12     -0.18      0.00
  -21    3   12     -0.98      0.00
  -20    3   12      0.26      0.00
  -19    3   12      1.91      0.00
  -18    3   12      0.64      0.00
  -17    3   12     -0.52      0.00
  -16    3   12      1.08      0.00
  -15    3   12      1.00      0.00
  -14    3   12      1.40      0.00
  -13    3   12     -1.75      0.00
  -12    3   12      1.44      0.00
  -11    3   12     -2.28      0.00
  -10    3   12      1.02      0.00
   -9    3   12     -1.44      0.00
   -8    3   12      2.47      0.00
   -7    3   12     -4.34      0.00
   -6    3   12      4.02      0.00
   -5    3   12      3.43      0.00
   -4    3   12     -5.48      0.00
   -3    3   12      1.86      0.00
   -2    3   12      1.20      0.00
   -1    3   12      8.75      0.00
    0    3   12     -2.73      0.00
    1    3   12      5.30      0.00
    2    3   12      2.27      0.00
    3    3   12      0.76      0.00
    4    3   12     -2.70      0.00
    5    3   12     -3.35      0.00
    6    3   12      1.36      0.00
    7    3   12     -1.80      0.00
    8    3   12      5.15      0.00
    9    3   12     -1.73      0.00
   10    3   12      1.90      0.00
   11    3   12      0.22      0.00
   12    3   12      3.74      0.00
   13    3   12      0.62      0.00
   14    3   12      2.13      0.00
   15    3   12      1.11      0.00
   16    3   12      1.91      0.00
   17    3   12     -1.77      0.00
   18    3   12     -0.16      0.00
   19    3   12     -0.27      0.00
   20    3   12     -3.00      0.00
   21    3   12      1.19      0.00
   22    3   12      1.30      0.00
  -25    4   12      3.56      0.00
  -24    4   12     -2.12      0.00
  -23    4   12     -4.13      0.00
  -22    4   12     -0.36      0.00
  -21    4   12      1.31      0.00
  -20    4   12     -0.36      0.00
  -19    4   12      0.18      0.00
  -18    4   12      0.85      0.00
  -17    4   12     -0.70      0.00
  -16    4   12     -0.78      0.00
  -15    4   12      0.40      0.00
  -14    4   12     -2.09      0.00
  -13    4   12      1.38      0.00
  -12    4   12     -1.43      0.00
  -11    4   12      2.11      0.00
  -10    4   12     -3.36      0.00
   -9    4   12      0.79      0.00
   -8    4   12     -1.27      0.00
   -7    4   12      0.62      0.00
   -6    4   12     -0.10      0.00
   -5    4   12      3.46      0.00
   -4    4   12     -2.26      0.00
   -3    4   12      1.97      0.00
   -2    4   12      1.13      0.00
   -1    4   12      3.07      0.00
    0    4   12      3.25      0.00
    1    4   12      1.48      0.00
    2    4   12      0.34      0.00
    3    4   12     -0.87      0.00
    4    4   12     -4.71      0.00
    5    4   12     -0.51      0.00
    6    4   12      0.62      0.00
    7    4   12      1.54      0.00
    8    4   12      1.35      0.00
    9    4   12      2.21      0.00
   10    4   12      0.41      0.00
   11    4   12      4.43      0.00
   12    4   12      0.58      0.00
   13    4   12      1.53      0.00
   14    4   12     -2.36      0.00
   15    4   12     -0.95      0.00
   16    4   12     -3.49      0.00
   17    4   12     -0.09      0.00
   18    4   12     -3.05      0.00
   19    4   12     -5.40      0.00
   20    4   12     -4.83      0.00
   21    4   12      2.95      0.00
  -23    5   12      4.76      0.00
  -22    5   12      2.32      0.00
  -21    5   12     -1.29      0.00
  -20    5   12      6.45      0.00
  -19    5   12     -0.94      0.00
  -18    5   12     -3.46      0.00
  -17    5   12      1.41      0.00
  -16    5   12     -3.91      0.00
  -15    5   12     -0.84      0.00
  -14    5   12      0.31      0.00
  -13    5   12     -0.85      0.00
  -12    5   12      1.48      0.00
  -11    5   12      1.03      0.00
  -10    5   12      0.02      0.00
   -9    5   12     -0.13      0.00
   -8    5   12      1.37      0.00
   -7    5   12      1.80      0.00
   -6    5   12     -1.40      0.00
   -5    5   12      0.91      0.00
   -4    5   12      1.54      0.00
   -3    5   12      2.01      0.00
   -2    5   12      1.04      0.00
   -1    5   12     -0.07      0.00
    0    5   12      2.07      0.00
    1    5   12     -0.01      0.00
    2    5   12      0.16      0.00
    3    5   12     -1.44      0.00
    4    5   12      0.59      0.00
    5    5   12     -0.20      0.00
    6    5   12      1.30      0.00
    7    5   12     -0.31      0.00
    8    5   12      1.80      0.00
    9    5   12     -0.41      0.00
   10    5   12      1.19      0.00
   11    5   12     -1.29      0.00
   12    5   12      0.93      0.00
   13    5   12     -1.03      0.00
   14    5   12      0.62      0.00
   15    5   12      2.84      0.00
   16    5   12     -0.06      0.00
   17    5   12      2.79      0.00
   18    5   12      2.81      0.00
   19    5   12      0.74      0.00
  -22    6   12      0.36      0.00
  -21    6   12      1.93      0.00
  -20    6   12      0.11      0.00
  -19    6   12     -0.01      0.00
  -18    6   12     -0.70      0.00
  -17    6   12     -1.12      0.00
  -16    6   12      0.40      0.00
  -15    6   12      0.68      0.00
  -14    6   12      0.70      0.00
  -13    6   12      1.60      0.00
  -12    6   12     -1.45      0.00
  -11    6   12     -0.28      0.00
  -10    6   12     -1.49      0.00
   -9    6   12     -0.27      0.00
   -8    6   12     -0.05      0.00
   -7    6   12      0.15      0.00
   -6    6   12     -0.07      0.00
   -5    6   12     -2.59      0.00
   -4    6   12      1.80      0.00
   -3    6   12      0.24      0.00
   -2    6   12      0.20      0.00
   -1    6   12     -1.62      0.00
    0    6   12     -0.46      0.00
    1    6   12      1.35      0.00
    2    6   12     -0.64      0.00
    3    6   12     -0.85      0.00
    4    6   12     -0.14      0.00
    5    6   12     -1.26      0.00
    6    6   12     -1.08      0.00
    7    6   12      0.30      0.00
    8    6   12      0.65      0.00
    9    6   12      0.14      0.00
   10    6   12     -2.77      0.00
   11    6   12     -0.84      0.00
   12    6   12     -0.82      0.00
   13    6   12      0.97      0.00
   14    6   12     -1.74      0.00
   15    6   12      1.62      0.00
   16    6   12     -0.70      0.00
   17    6   12     -1.88      0.00
   18    6   12     -0.54      0.00
  -19    7   12     -2.42      0.00
  -18    7   12      0.37      0.00
  -17    7   12     -0.95      0.00
  -16    7   12      0.62      0.00
  -15    7   12     -0.10      0.00
  -14    7   12      0.62      0.00
  -13    7   12      0.84      0.00
  -12    7   12     -0.94      0.00
  -11    7   12     -1.56      0.00
  -10    7   12      3.60      0.00
   -9    7   12     -0.79      0.00
   -8    7   12      0.70      0.00
   -7    7   12      0.99      0.00
   -6    7   12     -0.50      0.00
   -5    7   12      0.95      0.00
   -4    7   12      0.26      0.00
   -3    7   12     -1.48      0.00
   -2    7   12     -1.14      0.00
   -1    7   12     -0.78      0.00
    0    7   12      0.99      0.00
    1    7   12      0.33      0.00
    2    7   12      1.05      0.00
    3    7   12      0.58      0.00
    4    7   12     -1.60      0.00
    5    7   12      0.19      0.00
    6    7   12     -1.31      0.00
    7    7   12     -3.27      0.00
    8    7   12     -1.63      0.00
    9    7   12     -3.85      0.00
   10    7   12     -1.56      0.00
   11    7   12      0.30      0.00
   12    7   12     -2.11      0.00
   13    7   12      0.31      0.00
   14    7   12      0.15      0.00
   15    7   12     -2.07      0.00
  -16    8   12     -3.29      0.00
  -15    8   12     -1.14      0.00
  -14    8   12     -1.84      0.00
  -13    8   12     -2.28      0.00
  -12    8   12     -2.33      0.00
  -11    8   12     -0.48      0.00
  -10    8   12      2.37      0.00
   -9    8   12      3.22      0.00
   -8    8   12      0.39      0.00
   -7    8   12      0.35      0.00
   -6    8   12      0.04      0.00
   -5    8   12     -2.31      0.00
   -4    8   12      3.53      0.00
   -3    8   12      1.22      0.00
   -2    8   12      0.76      0.00
   -1    8   12      0.03      0.00
    0    8   12      1.76      0.00
    1    8   12      1.35      0.00
    2    8   12      0.64      0.00
    3    8   12     -1.96      0.00
    4    8   12      2.76      0.00
    5    8   12     -0.38      0.00
    6    8   12     -1.85      0.00
    7    8   12      0.60      0.00
    8    8   12      1.60      0.00
    9    8   12     -0.85      0.00
   10    8   12      1.48      0.00
   11    8   12      0.83      0.00
   12    8   12     -0.76      0.00
  -11    9   12      2.22      0.00
  -10    9   12     -0.04      0.00
   -9    9   12     -2.55      0.00
   -8    9   12     -2.64      0.00
   -7    9   12     -2.78      0.00
   -6    9   12      0.49      0.00
   -5    9   12      5.50      0.00
   -4    9   12      1.46      0.00
   -3    9   12      2.10      0.00
   -2    9   12      0.31      0.00
   -1    9   12     -0.19      0.00
    0    9   12      0.22      0.00
    1    9   12      0.23      0.00
    2    9   12      3.88      0.00
    3    9   12      0.80      0.00
    4    9   12     -9.40      0.00
    5    9   12      1.89      0.00
    6    9   12      4.82      0.00
    7    9   12     -1.23      0.00
  -27    0   13      1.21      0.00
  -25    0   13      1.80      0.00
  -23    0   13      3.86      0.00
  -21    0   13      0.81      0.00
  -19    0   13      0.50      0.00
  -17    0   13      4.96      0.00
  -15    0   13     -0.74      0.00
  -13    0   13      2.74      0.00
  -11    0   13      3.29      0.00
   -9    0   13      0.40      0.00
   -7    0   13     -5.55      0.00
   -5    0   13    -10.56      0.00
   -3    0   13     -5.89      0.00
   -1    0   13      1.25      0.00
    1    0   13     -2.21      0.00
    3    0   13      1.64      0.00
    5    0   13      3.84      0.00
    7    0   13      5.38      0.00
    9    0   13     -2.02      0.00
   11    0   13     -5.57      0.00
   13    0   13     -0.55      0.00
   15    0   13     -3.92      0.00
   17    0   13      1.63      0.00
   19    0   13      2.18      0.00
   21    0   13      0.24      0.00
   23    0   13     -1.13      0.00
  -27    1   13      0.20      0.00
  -26    1   13      0.20      0.00
  -25    1   13     -3.50      0.00
  -24    1   13     -1.97      0.00
  -23    1   13      4.07      0.00
  -22    1   13     -0.79      0.00
  -21    1   13     -0.61      0.00
  -20    1   13      2.55      0.00
  -19    1   13     -0.18      0.00
  -18    1   13     -1.64      0.00
  -17    1   13     -1.28      0.00
  -16    1   13      0.63      0.00
  -15    1   13     -0.21      0.00
  -14    1   13      2.10      0.00
  -13    1   13      0.07      0.00
  -12    1   13      6.71      0.00
  -11    1   13     -5.02      0.00
  -10    1   13      3.92      0.00
   -9    1   13     -2.94      0.00
   -8    1   13     -0.85      0.00
   -7    1   13     -5.55      0.00
   -6    1   13     -1.40      0.00
   -5    1   13     -0.11      0.00
   -4    1   13      0.24      0.00
   -3    1   13      1.35      0.00
   -2    1   13      0.03      0.00
   -1    1   13      2.21      0.00
    0    1   13     -0.25      0.00
    1    1   13     -4.74      0.00
    2    1   13      0.88      0.00
    3    1   13     -1.81      0.00
    4    1   13      5.19      0.00
    5    1   13     -3.38      0.00
    6    1   13      6.89      0.00
    7    1   13     -1.12      0.00
    8    1   13      5.39      0.00
    9    1   13     -5.24      0.00
   10    1   13      0.62      0.00
   11    1   13     -0.21      0.00
   12    1   13     -2.72      0.00
   13    1   13      1.05      0.00
   14    1   13      2.34      0.00
   15    1   13      1.07      0.00
   16    1   13     -2.05      0.00
   17    1   13     -1.30      0.00
   18    1   13     -0.94      0.00
   19    1   13     -2.44      0.00
   20    1   13      1.20      0.00
   21    1   13     -0.93      0.00
   22    1   13      1.54      0.00
   23    1   13     -1.64      0.00
  -26    2   13     -5.25      0.00
  -25    2   13     -4.25      0.00
  -24    2   13      1.98      0.00
  -23    2   13      0.53      0.00
  -22    2   13     -0.06      0.00
  -21    2   13     -0.07      0.00
  -20    2   13      0.45      0.00
  -19    2   13      1.10      0.00
  -18    2   13     -1.13      0.00
  -17    2   13     -0.36      0.00
  -16    2   13      1.63      0.00
  -15    2   13      2.29      0.00
  -14    2   13     -0.27      0.00
  -13    2   13      0.89      0.00
  -12    2   13      0.35      0.00
  -11    2   13      2.15      0.00
  -10    2   13     -1.27      0.00
   -9    2   13      2.28      0.00
   -8    2   13     -2.93      0.00
   -7    2   13      4.87      0.00
   -6    2   13     -2.13      0.00
   -5    2   13     -3.39      0.00
   -4    2   13     -3.94      0.00
   -3    2   13     -1.70      0.00
   -2    2   13     -2.21      0.00
   -1    2   13     -4.23      0.00
    0    2   13      0.89      0.00
    1    2   13     -7.94      0.00
    2    2   13     -0.68      0.00
    3    2   13     -1.45      0.00
    4    2   13      1.00      0.00
    5    2   13      2.25      0.00
    6    2   13     -3.75      0.00
    7    2   13      4.25      0.00
    8    2   13     -4.57      0.00
    9    2   13      5.27      0.00
   10    2   13     -3.04      0.00
   11    2   13     -1.54      0.00
   12    2   13     -2.33      0.00
   13    2   13      0.15      0.00
   14    2   13      0.25      0.00
   15    2   13      2.29      0.00
   16    2   13     -2.80      0.00
   17    2   13     -1.56      0.00
   18    2   13     -0.12      0.00
   19    2   13      3.73      0.00
   20    2   13      0.74      0.00
   21    2   13     -0.84      0.00
   22    2   13     -1.27      0.00
  -26    3   13      2.70      0.00
  -25    3   13     -2.56      0.00
  -24    3   13      4.14      0.00
  -23    3   13     -2.17      0.00
  -22    3   13     -0.28      0.00
  -21    3   13      0.23      0.00
  -20    3   13      1.17      0.00
  -19    3   13      0.95      0.00
  -18    3   13     -1.59      0.00
  -17    3   13     -0.32      0.00
  -16    3   13      1.97      0.00
  -15    3   13     -0.43      0.00
  -14    3   13      0.70      0.00
  -13    3   13     -3.00      0.00
  -12    3   13      0.58      0.00
  -11    3   13     -1.43      0.00
  -10    3   13      1.41      0.00
   -9    3   13     -2.64      0.00
   -8    3   13     -2.09      0.00
   -7    3   13     -2.56      0.00
   -6    3   13      1.22      0.00
   -5    3   13     -7.85      0.00
   -4    3   13     -3.60      0.00
   -3    3   13     -0.13      0.00
   -2    3   13     -0.72      0.00
   -1    3   13     -3.13      0.00
    0    3   13     -3.04      0.00
    1    3   13      1.23      0.00
    2    3   13     -3.02      0.00
    3    3   13     -3.47      0.00
    4    3   13     -3.63      0.00
    5    3   13     -0.33      0.00
    6    3   13      0.27      0.00
    7    3   13     -0.37      0.00
    8    3   13      0.83      0.00
    9    3   13     -0.62      0.00
   10    3   13      0.05      0.00
   11    3   13      0.71      0.00
   12    3   13     -0.69      0.00
   13    3   13     -1.48      0.00
   14    3   13      1.45      0.00
   15    3   13     -0.03      0.00
   16    3   13     -0.60      0.00
   17    3   13     -1.04      0.00
   18    3   13      0.27      0.00
   19    3   13     -2.62      0.00
   20    3   13      1.16      0.00
   21    3   13     -0.03      0.00
  -25    4   13      1.88      0.00
  -24    4   13     -3.93      0.00
  -23    4   13      0.18      0.00
  -22    4   13      1.70      0.00
  -21    4   13     -0.95      0.00
  -20    4   13      1.77      0.00
  -19    4   13      0.04      0.00
  -18    4   13     -0.52      0.00
  -17    4   13      0.50      0.00
  -16    4   13      0.46      0.00
  -15    4   13      2.11      0.00
  -14    4   13     -1.22      0.00
  -13    4   13      1.60      0.00
  -12    4   13     -1.05      0.00
  -11    4   13      0.77      0.00
  -10    4   13     -0.68      0.00
   -9    4   13     -0.03      0.00
   -8    4   13     -1.42      0.00
   -7    4   13      0.13      0.00
   -6    4   13      1.87      0.00
   -5    4   13     -2.86      0.00
   -4    4   13     -1.22      0.00
   -3    4   13      1.28      0.00
   -2    4   13     -1.05      0.00
   -1    4   13      2.48      0.00
    0    4   13     -3.18      0.00
    1    4   13      2.70      0.00
    2    4   13     -3.83      0.00
    3    4   13     -1.51      0.00
    4    4   13     -2.64      0.00
    5    4   13      2.69      0.00
    6    4   13     -0.45      0.00
    7    4   13      2.46      0.00
    8    4   13     -0.51      0.00
    9    4   13     -1.51      0.00
   10    4   13      0.74      0.00
   11    4   13      1.40      0.00
   12    4   13     -2.36      0.00
   13    4   13     -1.75      0.00
   14    4   13     -2.59      0.00
   15    4   13     -1.49      0.00
   16    4   13     -0.29      0.00
   17    4   13      1.04      0.00
   18    4   13     -4.41      0.00
   19    4   13      1.15      0.00
   20    4   13      4.88      0.00
  -23    5   13      0.92      0.00
  -22    5   13     -0.63      0.00
  -21    5   13      5.73      0.00
  -20    5   13     -0.06      0.00
  -19    5   13     -6.52      0.00
  -18    5   13      0.05      0.00
  -17    5   13     -3.10      0.00
  -16    5   13     -0.54      0.00
  -15    5   13      1.07      0.00
  -14    5   13      0.08      0.00
  -13    5   13      0.32      0.00
  -12    5   13      2.46      0.00
  -11    5   13      0.18      0.00
  -10    5   13     -0.07      0.00
   -9    5   13     -0.30      0.00
   -8    5   13     -0.67      0.00
   -7    5   13     -2.00      0.00
   -6    5   13     -3.15      0.00
   -5    5   13      0.99      0.00
   -4    5   13     -2.23      0.00
   -3    5   13      0.79      0.00
   -2    5   13     -2.27      0.00
   -1    5   13      0.81      0.00
    0    5   13     -2.04      0.00
    1    5   13     -0.27      0.00
    2    5   13     -0.32      0.00
    3    5   13      0.77      0.00
    4    5   13      0.81      0.00
    5    5   13     -0.01      0.00
    6    5   13      1.10      0.00
    7    5   13     -0.32      0.00
    8    5   13     -0.49      0.00
    9    5   13      0.27      0.00
   10    5   13     -0.24      0.00
   11    5   13     -0.50      0.00
   12    5   13     -0.26      0.00
   13    5   13     -0.97      0.00
   14    5   13      4.20      0.00
   15    5   13      0.49      0.00
   16    5   13      2.29      0.00
   17    5   13      3.91      0.00
   18    5   13     -0.61      0.00
   19    5   13      1.59      0.00
  -22    6   13      1.35      0.00
  -21    6   13     -0.16      0.00
  -20    6   13     -1.13      0.00
  -19    6   13     -1.16      0.00
  -18    6   13     -2.07      0.00
  -17    6   13      1.71      0.00
  -16    6   13      1.04      0.00
  -15    6   13      4.00      0.00
  -14    6   13      0.01      0.00
  -13    6   13      0.71      0.00
  -12    6   13     -3.00      0.00
  -11    6   13     -0.65      0.00
  -10    6   13     -2.51      0.00
   -9    6   13      1.34      0.00
   -8    6   13     -1.71      0.00
   -7    6   13     -0.37      0.00
   -6    6   13     -3.28      0.00
   -5    6   13      1.53      0.00
   -4    6   13      2.17      0.00
   -3    6   13     -1.23      0.00
   -2    6   13     -0.97      0.00
   -1    6   13     -1.16      0.00
    0    6   13      1.74      0.00
    1    6   13     -0.46      0.00
    2    6   13     -0.28      0.00
    3    6   13     -1.23      0.00
    4    6   13     -0.21      0.00
    5    6   13     -0.05      0.00
    6    6   13      0.31      0.00
    7    6   13      0.98      0.00
    8    6   13      0.07      0.00
    9    6   13     -1.35      0.00
   10    6   13     -1.01      0.00
   11    6   13     -0.34      0.00
   12    6   13      0.65      0.00
   13    6   13     -2.48      0.00
   14    6   13      0.67      0.00
   15    6   13      1.18      0.00
   16    6   13     -4.28      0.00
   17    6   13      0.03      0.00
  -19    7   13     -1.50      0.00
  -18    7   13     -0.37      0.00
  -17    7   13     -1.50      0.00
  -16    7   13      1.78      0.00
  -15    7   13     -0.92      0.00
  -14    7   13      1.56      0.00
  -13    7   13     -0.58      0.00
  -12    7   13     -0.50      0.00
  -11    7   13      1.61      0.00
  -10    7   13      0.19      0.00
   -9    7   13     -1.85      0.00
   -8    7   13      0.49      0.00
   -7    7   13     -0.67      0.00
   -6    7   13     -1.97      0.00
   -5    7   13      0.90      0.00
   -4    7   13     -2.28      0.00
   -3    7   13      0.80      0.00
   -2    7   13     -0.38      0.00
   -1    7   13      2.83      0.00
    0    7   13      1.83      0.00
    1    7   13      0.82      0.00
    2    7   13      1.57      0.00
    3    7   13     -0.33      0.00
    4    7   13     -0.91      0.00
    5    7   13      0.87      0.00
    6    7   13     -2.05      0.00
    7    7   13      0.90      0.00
    8    7   13     -0.11      0.00
    9    7   13      1.25      0.00
   10    7   13      2.70      0.00
   11    7   13      2.63      0.00
   12    7   13      1.22      0.00
   13    7   13      3.94      0.00
   14    7   13      0.37      0.00
   15    7   13      1.18      0.00
  -16    8   13     -1.48      0.00
  -15    8   13      1.33      0.00
  -14    8   13      0.53      0.00
  -13    8   13     -0.64      0.00
  -12    8   13     -0.78      0.00
  -11    8   13      4.93      0.00
  -10    8   13      1.67      0.00
   -9    8   13     -1.51      0.00
   -8    8   13      0.72      0.00
   -7    8   13     -2.32      0.00
   -6    8   13      0.06      0.00
   -5    8   13     -0.53      0.00
   -4    8   13      2.06      0.00
   -3    8   13     -1.02      0.00
   -2    8   13     -0.42      0.00
   -1    8   13      0.39      0.00
    0    8   13      1.41      0.00
    1    8   13     -1.07      0.00
    2    8   13     -1.53      0.00
    3    8   13      2.04      0.00
    4    8   13      1.36      0.00
    5    8   13     -1.33      0.00
    6    8   13      1.52      0.00
    7    8   13      0.96      0.00
    8    8   13      1.94      0.00
    9    8   13      0.27      0.00
   10    8   13      2.07      0.00
   11    8   13     -1.89      0.00
   12    8   13      0.19      0.00
  -11    9   13     -0.53      0.00
  -10    9   13     -0.93      0.00
   -9    9   13     -1.95      0.00
   -8    9   13     -0.89      0.00
   -7    9   13      2.69      0.00
   -6    9   13      2.43      0.00
   -5    9   13      3.34      0.00
   -4    9   13     -2.25      0.00
   -3    9   13     -3.48      0.00
   -2    9   13     -3.60      0.00
   -1    9   13     -0.11      0.00
    0    9   13     -0.30      0.00
    1    9   13      0.75      0.00
    2    9   13     -0.44      0.00
    3    9   13     -5.98      0.00
    4    9   13      1.01      0.00
    5    9   13      4.10      0.00
    6    9   13     -1.57      0.00
    7    9   13     -2.39      0.00
  -26    0   14      3.00      0.00
  -24    0   14      0.13      0.00
  -22    0   14      1.31      0.00
  -20    0   14     -0.21      0.00
  -18    0   14      4.33      0.00
  -16    0   14     -3.97      0.00
  -14    0   14     -1.98      0.00
  -12    0   14     -6.62      0.00
  -10    0   14     -7.30      0.00
   -8    0   14     -2.63      0.00
   -6    0   14     -0.57      0.00
   -4    0   14      5.79      0.00
   -2    0   14      3.44      0.00
    0    0   14      0.64      0.00
    2    0   14     -2.06      0.00
    4    0   14     -3.25      0.00
    6    0   14     -3.35      0.00
    8    0   14     -6.91      0.00
   10    0   14     -2.82      0.00
   12    0   14      4.24      0.00
   14    0   14     -0.39      0.00
   16    0   14      4.41      0.00
   18    0   14      1.39      0.00
   20    0   14     -2.81      0.00
   22    0   14     -1.83      0.00
  -27    1   14     -0.03      0.00
  -26    1   14     -2.53      0.00
  -25    1   14     -2.56      0.00
  -24    1   14      2.27      0.00
  -23    1   14      1.81      0.00
  -22    1   14     -2.78      0.00
  -21    1   14      3.53      0.00
  -20    1   14     -1.32      0.00
  -19    1   14     -2.85      0.00
  -18    1   14      0.17      0.00
  -17    1   14     -0.08      0.00
  -16    1   14      0.52      0.00
  -15    1   14      0.37      0.00
  -14    1   14      1.71      0.00
  -13    1   14      0.43      0.00
  -12    1   14     -1.28      0.00
  -11    1   14     -5.53      0.00
  -10    1   14      2.91      0.00
   -9    1   14     -5.20      0.00
   -8    1   14      2.83      0.00
   -7    1   14      1.09      0.00
   -6    1   14      7.98      0.00
   -5    1   14      5.87      0.00
   -4    1   14      1.16      0.00
   -3    1   14      3.33      0.00
   -2    1   14      4.69      0.00
   -1    1   14     -0.91      0.00
    0    1   14      0.46      0.00
    1    1   14     -4.52      0.00
    2    1   14      0.35      0.00
    3    1   14     -0.17      0.00
    4    1   14      1.18      0.00
    5    1   14     -1.30      0.00
    6    1   14      2.48      0.00
    7    1   14     -3.66      0.00
    8    1   14     -0.26      0.00
    9    1   14     -2.72      0.00
   10    1   14      5.40      0.00
   11    1   14     -1.66      0.00
   12    1   14      2.88      0.00
   13    1   14      3.35      0.00
   14    1   14      1.19      0.00
   15    1   14     -1.69      0.00
   16    1   14     -0.85      0.00
   17    1   14     -0.75      0.00
   18    1   14     -1.29      0.00
   19    1   14      1.67      0.00
   20    1   14      1.90      0.00
   21    1   14      0.77      0.00
   22    1   14     -0.41      0.00
  -26    2   14     -7.20      0.00
  -25    2   14      3.87      0.00
  -24    2   14      0.73      0.00
  -23    2   14      2.16      0.00
  -22    2   14      0.21      0.00
  -21    2   14      1.40      0.00
  -20    2   14     -1.11      0.00
  -19    2   14     -0.02      0.00
  -18    2   14     -1.08      0.00
  -17    2   14      1.66      0.00
  -16    2   14     -0.34      0.00
  -15    2   14     -0.28      0.00
  -14    2   14     -3.55      0.00
  -13    2   14      0.78      0.00
  -12    2   14     -3.11      0.00
  -11    2   14     -0.08      0.00
  -10    2   14     -2.23      0.00
   -9    2   14      0.75      0.00
   -8    2   14      1.87      0.00
   -7    2   14      1.24      0.00
   -6    2   14     -1.10      0.00
   -5    2   14      1.21      0.00
   -4    2   14      1.49      0.00
   -3    2   14     -1.72      0.00
   -2    2   14      5.10      0.00
   -1    2   14      0.66      0.00
    0    2   14     -4.28      0.00
    1    2   14     -0.37      0.00
    2    2   14     -0.10      0.00
    3    2   14      0.94      0.00
    4    2   14      0.14      0.00
    5    2   14     -1.91      0.00
    6    2   14      0.89      0.00
    7    2   14     -0.27      0.00
    8    2   14      1.12      0.00
    9    2   14      1.49      0.00
   10    2   14      0.24      0.00
   11    2   14      1.58      0.00
   12    2   14      2.56      0.00
   13    2   14      1.98      0.00
   14    2   14      2.89      0.00
   15    2   14     -2.33      0.00
   16    2   14     -1.63      0.00
   17    2   14      0.89      0.00
   18    2   14      1.26      0.00
   19    2   14      0.13      0.00
   20    2   14     -1.50      0.00
   21    2   14      0.23      0.00
   22    2   14      0.56      0.00
  -26    3   14     -0.21      0.00
  -25    3   14     -0.64      0.00
  -24    3   14      1.36      0.00
  -23    3   14     -1.79      0.00
  -22    3   14      2.17      0.00
  -21    3   14      0.68      0.00
  -20    3   14      1.45      0.00
  -19    3   14     -1.64      0.00
  -18    3   14     -0.67      0.00
  -17    3   14      0.21      0.00
  -16    3   14      0.90      0.00
  -15    3   14     -3.04      0.00
  -14    3   14     -0.89      0.00
  -13    3   14     -4.08      0.00
  -12    3   14      2.52      0.00
  -11    3   14     -1.68      0.00
  -10    3   14      0.95      0.00
   -9    3   14     -1.23      0.00
   -8    3   14      2.53      0.00
   -7    3   14      2.69      0.00
   -6    3   14      1.69      0.00
   -5    3   14      1.87      0.00
   -4    3   14      5.31      0.00
   -3    3   14      1.77      0.00
   -2    3   14      3.50      0.00
   -1    3   14     -0.79      0.00
    0    3   14      5.58      0.00
    1    3   14     -2.27      0.00
    2    3   14      2.08      0.00
    3    3   14     -2.26      0.00
    4    3   14      3.08      0.00
    5    3   14      0.73      0.00
    6    3   14      1.17      0.00
    7    3   14      0.65      0.00
    8    3   14      3.15      0.00
    9    3   14     -0.31      0.00
   10    3   14      0.22      0.00
   11    3   14      0.51      0.00
   12    3   14     -0.03      0.00
   13    3   14      2.28      0.00
   14    3   14      0.49      0.00
   15    3   14      0.27      0.00
   16    3   14     -1.68      0.00
   17    3   14     -1.17      0.00
   18    3   14     -2.95      0.00
   19    3   14     -2.48      0.00
   20    3   14      0.41      0.00
   21    3   14     -3.60      0.00
  -25    4   14     -0.25      0.00
  -24    4   14     -4.63      0.00
  -23    4   14      2.06      0.00
  -22    4   14     -2.25      0.00
  -21    4   14      1.99      0.00
  -20    4   14      0.94      0.00
  -19    4   14     -2.88      0.00
  -18    4   14      0.75      0.00
  -17    4   14     -0.06      0.00
  -16    4   14      0.85      0.00
  -15    4   14     -0.14      0.00
  -14    4   14     -2.12      0.00
  -13    4   14      0.17      0.00
  -12    4   14     -0.95      0.00
  -11    4   14      2.01      0.00
  -10    4   14     -2.12      0.00
   -9    4   14      0.06      0.00
   -8    4   14      1.26      0.00
   -7    4   14      3.83      0.00
   -6    4   14      1.36      0.00
   -5    4   14     -0.01      0.00
   -4    4   14      3.95      0.00
   -3    4   14      0.20      0.00
   -2    4   14      3.42      0.00
   -1    4   14     -0.21      0.00
    0    4   14      2.42      0.00
    1    4   14      0.63      0.00
    2    4   14     -2.29      0.00
    3    4   14      2.05      0.00
    4    4   14      1.26      0.00
    5    4   14      3.46      0.00
    6    4   14      0.44      0.00
    7    4   14      2.14      0.00
    8    4   14     -2.77      0.00
    9    4   14      0.59      0.00
   10    4   14      2.16      0.00
   11    4   14     -0.60      0.00
   12    4   14     -3.26      0.00
   13    4   14      0.74      0.00
   14    4   14     -2.05      0.00
   15    4   14      0.72      0.00
   16    4   14      2.93      0.00
   17    4   14     -3.52      0.00
   18    4   14      2.13      0.00
   19    4   14      5.88      0.00
   20    4   14      1.23      0.00
  -23    5   14     -5.60      0.00
  -22    5   14      3.07      0.00
  -21    5   14     -0.24      0.00
  -20    5   14    -10.05      0.00
  -19    5   14      0.20      0.00
  -18    5   14     -1.10      0.00
  -17    5   14      0.33      0.00
  -16    5   14      2.64      0.00
  -15    5   14     -1.49      0.00
  -14    5   14      1.47      0.00
  -13    5   14     -0.45      0.00
  -12    5   14      3.04      0.00
  -11    5   14     -2.88      0.00
  -10    5   14     -0.13      0.00
   -9    5   14     -2.28      0.00
   -8    5   14      0.09      0.00
   -7    5   14     -1.19      0.00
   -6    5   14      2.36      0.00
   -5    5   14      1.48      0.00
   -4    5   14     -0.28      0.00
   -3    5   14      1.71      0.00
   -2    5   14     -1.38      0.00
   -1    5   14     -0.43      0.00
    0    5   14     -0.73      0.00
    1    5   14      1.63      0.00
    2    5   14      0.39      0.00
    3    5   14      1.19      0.00
    4    5   14     -1.61      0.00
    5    5   14      0.81      0.00
    6    5   14     -0.11      0.00
    7    5   14     -1.40      0.00
    8    5   14      0.31      0.00
    9    5   14      0.50      0.00
   10    5   14     -0.29      0.00
   11    5   14     -0.45      0.00
   12    5   14     -0.18      0.00
   13    5   14      2.42      0.00
   14    5   14      1.22      0.00
   15    5   14      0.11      0.00
   16    5   14      0.44      0.00
   17    5   14     -2.94      0.00
   18    5   14     -3.39      0.00
   19    5   14     -1.81      0.00
  -21    6   14     -3.39      0.00
  -20    6   14     -1.39      0.00
  -19    6   14     -2.82      0.00
  -18    6   14      2.63      0.00
  -17    6   14      1.48      0.00
  -16    6   14      2.75      0.00
  -15    6   14     -0.82      0.00
  -14    6   14     -2.89      0.00
  -13    6   14     -1.71      0.00
  -12    6   14     -2.71      0.00
  -11    6   14      0.08      0.00
  -10    6   14      1.48      0.00
   -9    6   14      1.81      0.00
   -8    6   14      0.33      0.00
   -7    6   14      0.90      0.00
   -6    6   14      3.09      0.00
   -5    6   14      3.93      0.00
   -4    6   14     -0.79      0.00
   -3    6   14     -1.25      0.00
   -2    6   14     -0.09      0.00
   -1    6   14      1.04      0.00
    0    6   14     -0.27      0.00
    1    6   14     -0.15      0.00
    2    6   14     -1.51      0.00
    3    6   14     -0.36      0.00
    4    6   14      0.88      0.00
    5    6   14      0.73      0.00
    6    6   14     -0.66      0.00
    7    6   14      0.35      0.00
    8    6   14     -0.78      0.00
    9    6   14      0.45      0.00
   10    6   14      0.21      0.00
   11    6   14      2.57      0.00
   12    6   14     -1.27      0.00
   13    6   14      1.47      0.00
   14    6   14      3.96      0.00
   15    6   14     -5.00      0.00
   16    6   14     -0.91      0.00
   17    6   14     -1.18      0.00
  -19    7   14      0.99      0.00
  -18    7   14     -2.21      0.00
  -17    7   14      1.25      0.00
  -16    7   14     -1.15      0.00
  -15    7   14     -2.08      0.00
  -14    7   14      0.08      0.00
  -13    7   14     -2.47      0.00
  -12    7   14      0.56      0.00
  -11    7   14      0.37      0.00
  -10    7   14     -0.16      0.00
   -9    7   14      1.97      0.00
   -8    7   14      0.60      0.00
   -7    7   14     -0.63      0.00
   -6    7   14      0.27      0.00
   -5    7   14      1.09      0.00
   -4    7   14      0.17      0.00
   -3    7   14      0.44      0.00
   -2    7   14      1.03      0.00
   -1    7   14      1.88      0.00
    0    7   14     -1.10      0.00
    1    7   14      0.50      0.00
    2    7   14     -0.43      0.00
    3    7   14     -1.81      0.00
    4    7   14      0.61      0.00
    5    7   14     -0.26      0.00
    6    7   14     -0.80      0.00
    7    7   14      1.54      0.00
    8    7   14     -1.28      0.00
    9    7   14      2.84      0.00
   10    7   14      0.33      0.00
   11    7   14      1.38      0.00
   12    7   14      0.94      0.00
   13    7   14      1.27      0.00
   14    7   14     -2.13      0.00
  -16    8   14     -0.05      0.00
  -15    8   14      3.27      0.00
  -14    8   14     -1.02      0.00
  -13    8   14     -0.54      0.00
  -12    8   14      3.17      0.00
  -11    8   14      3.10      0.00
  -10    8   14     -3.93      0.00
   -9    8   14      2.36      0.00
   -8    8   14     -0.99      0.00
   -7    8   14     -0.94      0.00
   -6    8   14      0.42      0.00
   -5    8   14     -1.50      0.00
   -4    8   14      3.36      0.00
   -3    8   14     -2.07      0.00
   -2    8   14      0.98      0.00
   -1    8   14      1.05      0.00
    0    8   14     -1.85      0.00
    1    8   14     -2.25      0.00
    2    8   14      1.78      0.00
    3    8   14      0.19      0.00
    4    8   14     -1.00      0.00
    5    8   14      1.75      0.00
    6    8   14     -1.93      0.00
    7    8   14      1.82      0.00
    8    8   14     -1.84      0.00
    9    8   14     -1.50      0.00
   10    8   14     -1.54      0.00
   11    8   14     -2.28      0.00
  -11    9   14     -1.43      0.00
  -10    9   14     -1.08      0.00
   -9    9   14     -0.68      0.00
   -8    9   14      3.33      0.00
   -7    9   14      0.18      0.00
   -6    9   14      0.23      0.00
   -5    9   14     -1.37      0.00
   -4    9   14     -6.60      0.00
   -3    9   14     -0.75      0.00
   -2    9   14      1.93      0.00
   -1    9   14      2.47      0.00
    0    9   14     -0.99      0.00
    1    9   14     -1.00      0.00
    2    9   14     -3.43      0.00
    3    9   14      0.79      0.00
    4    9   14      3.17      0.00
    5    9   14     -2.34      0.00
    6    9   14     -1.35      0.00
  -27    0   15      5.51      0.00
  -25    0   15     -4.36      0.00
  -23    0   15     -0.55      0.00
  -21    0   15     -1.60      0.00
  -19    0   15      5.32      0.00
  -17    0   15     -1.68      0.00
  -15    0   15      2.13      0.00
  -13    0   15      0.04      0.00
  -11    0   15      3.68      0.00
   -9    0   15      7.05      0.00
   -7    0   15      0.74      0.00
   -5    0   15      1.02      0.00
   -3    0   15     -4.08      0.00
   -1    0   15      7.45      0.00
    1    0   15      7.05      0.00
    3    0   15      5.37      0.00
    5    0   15      4.85      0.00
    7    0   15     -0.06      0.00
    9    0   15      1.22      0.00
   11    0   15      3.94      0.00
   13    0   15     -1.44      0.00
   15    0   15      2.50      0.00
   17    0   15     -2.34      0.00
   19    0   15     -5.34      0.00
   21    0   15     -2.40      0.00
  -27    1   15     -2.50      0.00
  -26    1   15     -1.31      0.00
  -25    1   15      0.51      0.00
  -24    1   15      1.76      0.00
  -23    1   15     -2.33      0.00
  -22    1   15      2.23      0.00
  -21    1   15     -1.64      0.00
  -20    1   15     -2.65      0.00
  -19    1   15     -0.17      0.00
  -18    1   15      2.12      0.00
  -17    1   15     -1.14      0.00
  -16    1   15      2.23      0.00
  -15    1   15      0.57      0.00
  -14    1   15      2.42      0.00
  -13    1   15     -2.23      0.00
  -12    1   15     -0.55      0.00
  -11    1   15      0.56      0.00
  -10    1   15      1.60      0.00
   -9    1   15      0.31      0.00
   -8    1   15      2.72      0.00
   -7    1   15      1.13      0.00
   -6    1   15      0.25      0.00
   -5    1   15     -5.13      0.00
   -4    1   15     -5.22      0.00
   -3    1   15      2.36      0.00
   -2    1   15     -5.46      0.00
   -1    1   15      0.28      0.00
    0    1   15     -1.20      0.00
    1    1   15     -5.22      0.00
    2    1   15      6.68      0.00
    3    1   15     -1.13      0.00
    4    1   15      2.97      0.00
    5    1   15     -0.87      0.00
    6    1   15      0.49      0.00
    7    1   15     -1.57      0.00
    8    1   15      0.87      0.00
    9    1   15      3.46      0.00
   10    1   15     -1.31      0.00
   11    1   15     -0.67      0.00
   12    1   15      0.76      0.00
   13    1   15     -1.34      0.00
   14    1   15     -2.31      0.00
   15    1   15     -0.59      0.00
   16    1   15     -0.97      0.00
   17    1   15     -0.32      0.00
   18    1   15      2.40      0.00
   19    1   15      2.50      0.00
   20    1   15      0.02      0.00
   21    1   15     -0.01      0.00
   22    1   15     -3.98      0.00
  -26    2   15      1.41      0.00
  -25    2   15      6.49      0.00
  -24    2   15      0.82      0.00
  -23    2   15      2.23      0.00
  -22    2   15     -0.51      0.00
  -21    2   15     -1.82      0.00
  -20    2   15     -1.32      0.00
  -19    2   15      2.08      0.00
  -18    2   15      0.13      0.00
  -17    2   15      0.81      0.00
  -16    2   15     -1.65      0.00
  -15    2   15      0.24      0.00
  -14    2   15     -2.18      0.00
  -13    2   15      2.69      0.00
  -12    2   15     -2.94      0.00
  -11    2   15      3.23      0.00
  -10    2   15     -2.27      0.00
   -9    2   15      4.01      0.00
   -8    2   15     -2.61      0.00
   -7    2   15     -1.68      0.00
   -6    2   15     -1.53      0.00
   -5    2   15     -3.92      0.00
   -4    2   15     -4.60      0.00
   -3    2   15      1.95      0.00
   -2    2   15      0.47      0.00
   -1    2   15     -5.40      0.00
    0    2   15     -0.64      0.00
    1    2   15      2.47      0.00
    2    2   15     -0.94      0.00
    3    2   15      3.83      0.00
    4    2   15     -3.19      0.00
    5    2   15      3.53      0.00
    6    2   15     -2.52      0.00
    7    2   15      1.35      0.00
    8    2   15     -0.22      0.00
    9    2   15      1.45      0.00
   10    2   15      0.35      0.00
   11    2   15     -1.34      0.00
   12    2   15      1.08      0.00
   13    2   15     -0.39      0.00
   14    2   15     -2.08      0.00
   15    2   15     -3.60      0.00
   16    2   15      2.02      0.00
   17    2   15     -1.84      0.00
   18    2   15     -1.07      0.00
   19    2   15      0.98      0.00
   20    2   15     -1.22      0.00
   21    2   15     -0.72      0.00
  -26    3   15     -1.08      0.00
  -25    3   15      1.59      0.00
  -24    3   15      0.51      0.00
  -23    3   15      0.31      0.00
  -22    3   15     -0.61      0.00
  -21    3   15      0.14      0.00
  -20    3   15     -0.73      0.00
  -19    3   15     -1.04      0.00
  -18    3   15      1.48      0.00
  -17    3   15      0.91      0.00
  -16    3   15      0.18      0.00
  -15    3   15     -0.78      0.00
  -14    3   15      1.26      0.00
  -13    3   15      1.57      0.00
  -12    3   15      3.64      0.00
  -11    3   15     -0.72      0.00
  -10    3   15      2.87      0.00
   -9    3   15     -1.19      0.00
   -8    3   15      1.38      0.00
   -7    3   15     -2.32      0.00
   -6    3   15      0.48      0.00
   -5    3   15     -2.78      0.00
   -4    3   15     -3.18      0.00
   -3    3   15     -0.73      0.00
   -2    3   15     -0.67      0.00
   -1    3   15     -0.65      0.00
    0    3   15      0.41      0.00
    1    3   15     -2.09      0.00
    2    3   15      2.13      0.00
    3    3   15     -2.41      0.00
    4    3   15      3.08      0.00
    5    3   15     -3.03      0.00
    6    3   15      1.50      0.00
    7    3   15      0.11      0.00
    8    3   15     -0.40      0.00
    9    3   15     -4.62      0.00
   10    3   15      0.17      0.00
   11    3   15     -1.14      0.00
   12    3   15      1.88      0.00
   13    3   15     -2.42      0.00
   14    3   15      0.49      0.00
   15    3   15     -1.99      0.00
   16    3   15     -2.02      0.00
   17    3   15     -1.47      0.00
   18    3   15     -1.93      0.00
   19    3   15      2.07      0.00
   20    3   15      1.33      0.00
   21    3   15      0.27      0.00
  -25    4   15     -3.03      0.00
  -24    4   15     -1.36      0.00
  -23    4   15      1.05      0.00
  -22    4   15      2.11      0.00
  -21    4   15      2.68      0.00
  -20    4   15     -2.43      0.00
  -19    4   15     -0.44      0.00
  -18    4   15      1.70      0.00
  -17    4   15      0.27      0.00
  -16    4   15      0.19      0.00
  -15    4   15     -1.24      0.00
  -14    4   15     -1.75      0.00
  -13    4   15      1.49      0.00
  -12    4   15      1.25      0.00
  -11    4   15     -0.94      0.00
  -10    4   15     -2.44      0.00
   -9    4   15      1.87      0.00
   -8    4   15      0.12      0.00
   -7    4   15     -0.77      0.00
   -6    4   15     -3.53      0.00
   -5    4   15     -3.58      0.00
   -4    4   15     -1.18      0.00
   -3    4   15     -2.66      0.00
   -2    4   15      0.62      0.00
   -1    4   15     -2.04      0.00
    0    4   15      0.30      0.00
    1    4   15     -3.99      0.00
    2    4   15      1.09      0.00
    3    4   15     -0.17      0.00
    4    4   15      0.36      0.00
    5    4   15      0.07      0.00
    6    4   15     -1.17      0.00
    7    4   15     -0.66      0.00
    8    4   15     -2.38      0.00
    9    4   15      2.41      0.00
   10    4   15     -0.07      0.00
   11    4   15     -3.16      0.00
   12    4   15     -0.53      0.00
   13    4   15     -0.40      0.00
   14    4   15     -2.42      0.00
   15    4   15      4.28      0.00
   16    4   15     -2.15      0.00
   17    4   15     -0.44      0.00
   18    4   15      7.48      0.00
   19    4   15     -1.09      0.00
   20    4   15     -0.42      0.00
  -23    5   15      3.09      0.00
  -22    5   15      1.55      0.00
  -21    5   15     -5.49      0.00
  -20    5   15     -1.18      0.00
  -19    5   15      5.74      0.00
  -18    5   15     -0.34      0.00
  -17    5   15      3.67      0.00
  -16    5   15     -0.62      0.00
  -15    5   15      0.51      0.00
  -14    5   15      1.43      0.00
  -13    5   15      2.04      0.00
  -12    5   15     -0.17      0.00
  -11    5   15     -3.42      0.00
  -10    5   15     -0.75      0.00
   -9    5   15     -1.04      0.00
   -8    5   15      0.16      0.00
   -7    5   15      0.66      0.00
   -6    5   15      0.11      0.00
   -5    5   15     -2.07      0.00
   -4    5   15     -0.96      0.00
   -3    5   15     -0.90      0.00
   -2    5   15     -1.66      0.00
   -1    5   15      0.28      0.00
    0    5   15      1.97      0.00
    1    5   15     -1.04      0.00
    2    5   15      0.98      0.00
    3    5   15     -4.44      0.00
    4    5   15      0.41      0.00
    5    5   15     -0.74      0.00
    6    5   15     -0.01      0.00
    7    5   15     -0.49      0.00
    8    5   15      1.91      0.00
    9    5   15     -0.27      0.00
   10    5   15     -0.03      0.00
   11    5   15     -1.30      0.00
   12    5   15      2.82      0.00
   13    5   15     -1.07      0.00
   14    5   15      0.98      0.00
   15    5   15     -1.72      0.00
   16    5   15     -3.48      0.00
   17    5   15     -1.59      0.00
   18    5   15     -1.42      0.00
  -21    6   15     -0.41      0.00
  -20    6   15      0.30      0.00
  -19    6   15      2.79      0.00
  -18    6   15      3.20      0.00
  -17    6   15      0.54      0.00
  -16    6   15     -1.13      0.00
  -15    6   15     -3.16      0.00
  -14    6   15     -0.61      0.00
  -13    6   15     -0.12      0.00
  -12    6   15      0.83      0.00
  -11    6   15      2.11      0.00
  -10    6   15      2.39      0.00
   -9    6   15     -1.24      0.00
   -8    6   15      0.95      0.00
   -7    6   15      0.54      0.00
   -6    6   15      0.60      0.00
   -5    6   15     -3.88      0.00
   -4    6   15     -1.73      0.00
   -3    6   15      0.32      0.00
   -2    6   15      0.54      0.00
   -1    6   15      0.62      0.00
    0    6   15      0.53      0.00
    1    6   15      0.34      0.00
    2    6   15     -0.45      0.00
    3    6   15      2.51      0.00
    4    6   15      0.67      0.00
    5    6   15     -0.23      0.00
    6    6   15      0.18      0.00
    7    6   15      1.39      0.00
    8    6   15      2.25      0.00
    9    6   15     -0.45      0.00
   10    6   15      2.56      0.00
   11    6   15     -1.42      0.00
   12    6   15     -0.70      0.00
   13    6   15      5.14      0.00
   14    6   15     -4.88      0.00
   15    6   15     -2.76      0.00
   16    6   15      1.23      0.00
  -19    7   15     -1.17      0.00
  -18    7   15      1.74      0.00
  -17    7   15      1.78      0.00
  -16    7   15     -1.79      0.00
  -15    7   15      1.45      0.00
  -14    7   15      0.96      0.00
  -13    7   15     -0.61      0.00
  -12    7   15      2.24      0.00
  -11    7   15      0.00      0.00
  -10    7   15      1.64      0.00
   -9    7   15     -1.11      0.00
   -8    7   15     -2.12      0.00
   -7    7   15     -0.43      0.00
   -6    7   15      0.76      0.00
   -5    7   15      0.90      0.00
   -4    7   15     -0.45      0.00
   -3    7   15      0.24      0.00
   -2    7   15      2.51      0.00
   -1    7   15     -0.59      0.00
    0    7   15     -0.18      0.00
    1    7   15      2.07      0.00
    2    7   15     -2.73      0.00
    3    7   15      1.63      0.00
    4    7   15     -0.18      0.00
    5    7   15     -0.84      0.00
    6    7   15      1.17      0.00
    7    7   15      0.44      0.00
    8    7   15      0.98      0.00
    9    7   15      0.63      0.00
   10    7   15     -1.63      0.00
   11    7   15     -0.82      0.00
   12    7   15     -1.00      0.00
   13    7   15     -2.86      0.00
   14    7   15     -2.60      0.00
  -16    8   15      4.94      0.00
  -15    8   15      0.85      0.00
  -14    8   15     -1.67      0.00
  -13    8   15      2.14      0.00
  -12    8   15      2.17      0.00
  -11    8   15     -2.81      0.00
  -10    8   15      0.17      0.00
   -9    8   15     -0.43      0.00
   -8    8   15     -2.99      0.00
   -7    8   15     -0.92      0.00
   -6    8   15     -1.49      0.00
   -5    8   15      4.37      0.00
   -4    8   15      0.41      0.00
   -3    8   15     -2.42      0.00
   -2    8   15      2.03      0.00
   -1    8   15     -2.09      0.00
    0    8   15     -1.32      0.00
    1    8   15      2.04      0.00
    2    8   15      0.56      0.00
    3    8   15     -0.36      0.00
    4    8   15      2.45      0.00
    5    8   15     -2.11      0.00
    6    8   15      0.19      0.00
    7    8   15      1.38      0.00
    8    8   15     -2.58      0.00
    9    8   15      1.47      0.00
   10    8   15     -0.47      0.00
  -10    9   15      0.74      0.00
   -9    9   15      3.46      0.00
   -8    9   15     -2.34      0.00
   -7    9   15     -1.52      0.00
   -6    9   15     -2.23      0.00
   -5    9   15     -2.97      0.00
   -4    9   15     -1.16      0.00
   -3    9   15      4.17      0.00
   -2    9   15      1.15      0.00
   -1    9   15     -2.35      0.00
    0    9   15     -1.90      0.00
    1    9   15      0.89      0.00
    2    9   15      1.42      0.00
    3    9   15      3.17      0.00
    4    9   15     -1.23      0.00
    5    9   15     -1.02      0.00
  -26    0   16     -6.81      0.00
  -24    0   16      2.06      0.00
  -22    0   16      0.18      0.00
  -20    0   16      2.17      0.00
  -18    0   16     -6.12      0.00
  -16    0   16     -2.04      0.00
  -14    0   16     -4.24      0.00
  -12    0   16     -0.96      0.00
  -10    0   16      1.96      0.00
   -8    0   16     -2.61      0.00
   -6    0   16     -0.24      0.00
   -4    0   16     -1.27      0.00
   -2    0   16     10.51      0.00
    0    0   16     -3.15      0.00
    2    0   16     -9.40      0.00
    4    0   16     -6.85      0.00
    6    0   16     -8.01      0.00
    8    0   16     -0.52      0.00
   10    0   16      4.63      0.00
   12    0   16     -0.09      0.00
   14    0   16      1.76      0.00
   16    0   16     -1.78      0.00
   18    0   16     -1.29      0.00
   20    0   16      3.01      0.00
  -27    1   16     -1.82      0.00
  -26    1   16      0.06      0.00
  -25    1   16     -0.93      0.00
  -24    1   16      0.00      0.00
  -23    1   16      2.44      0.00
  -22    1   16     -0.23      0.00
  -21    1   16     -2.23      0.00
  -20    1   16      0.40      0.00
  -19    1   16      0.34      0.00
  -18    1   16     -1.49      0.00
  -17    1   16     -1.35      0.00
  -16    1   16     -0.12      0.00
  -15    1   16     -2.77      0.00
  -14    1   16     -1.74      0.00
  -13    1   16     -6.59      0.00
  -12    1   16      1.62      0.00
  -11    1   16     -3.45      0.00
  -10    1   16      2.49      0.00
   -9    1   16     -1.02      0.00
   -8    1   16      0.33      0.00
   -7    1   16      0.95      0.00
   -6    1   16     -2.34      0.00
   -5    1   16      0.90      0.00
   -4    1   16      4.31      0.00
   -3    1   16      1.60      0.00
   -2    1   16      1.14      0.00
   -1    1   16      2.35      0.00
    0    1   16     -7.95      0.00
    1    1   16      1.02      0.00
    2    1   16      1.42      0.00
    3    1   16     -6.39      0.00
    4    1   16      1.51      0.00
    5    1   16     -6.02      0.00
    6    1   16      2.01      0.00
    7    1   16     -1.86      0.00
    8    1   16      3.73      0.00
    9    1   16      0.44      0.00
   10    1   16     -0.80      0.00
   11    1   16      2.56      0.00
   12    1   16     -1.35      0.00
   13    1   16      0.51      0.00
   14    1   16      0.66      0.00
   15    1   16     -0.27      0.00
   16    1   16      0.49      0.00
   17    1   16      2.53      0.00
   18    1   16      2.36      0.00
   19    1   16     -0.61      0.00
   20    1   16      0.64      0.00
   21    1   16     -2.94      0.00
  -26    2   16      4.70      0.00
  -25    2   16      1.03      0.00
  -24    2   16      0.37      0.00
  -23    2   16     -0.62      0.00
  -22    2   16     -1.68      0.00
  -21    2   16     -1.49      0.00
  -20    2   16      3.99      0.00
  -19    2   16      0.94      0.00
  -18    2   16     -2.18      0.00
  -17    2   16      0.12      0.00
  -16    2   16     -0.77      0.00
  -15    2   16     -1.11      0.00
  -14    2   16     -1.37      0.00
  -13    2   16      0.66      0.00
  -12    2   16     -3.32      0.00
  -11    2   16      2.18      0.00
  -10    2   16     -0.51      0.00
   -9    2   16      3.03      0.00
   -8    2   16     -2.58      0.00
   -7    2   16      4.15      0.00
   -6    2   16     -1.96      0.00
   -5    2   16      1.63      0.00
   -4    2   16      5.23      0.00
   -3    2   16      5.64      0.00
   -2    2   16     -3.18      0.00
   -1    2   16      4.18      0.00
    0    2   16     -0.51      0.00
    1    2   16      2.79      0.00
    2    2   16      0.17      0.00
    3    2   16      1.40      0.00
    4    2   16     -1.70      0.00
    5    2   16      0.50      0.00
    6    2   16     -2.51      0.00
    7    2   16      2.58      0.00
    8    2   16      1.60      0.00
    9    2   16      1.94      0.00
   10    2   16     -3.65      0.00
   11    2   16      1.92      0.00
   12    2   16     -0.34      0.00
   13    2   16     -1.13      0.00
   14    2   16     -2.98      0.00
   15    2   16      1.93      0.00
   16    2   16     -2.18      0.00
   17    2   16     -1.00      0.00
   18    2   16      3.96      0.00
   19    2   16     -0.24      0.00
   20    2   16     -4.63      0.00
   21    2   16      1.54      0.00
  -26    3   16      1.53      0.00
  -25    3   16      0.06      0.00
  -24    3   16     -0.64      0.00
  -23    3   16     -2.63      0.00
  -22    3   16      0.00      0.00
  -21    3   16      0.93      0.00
  -20    3   16     -1.20      0.00
  -19    3   16     -0.30      0.00
  -18    3   16     -0.50      0.00
  -17    3   16     -1.26      0.00
  -16    3   16     -0.89      0.00
  -15    3   16     -0.51      0.00
  -14    3   16      0.56      0.00
  -13    3   16     -0.59      0.00
  -12    3   16     -0.03      0.00
  -11    3   16     -1.11      0.00
  -10    3   16     -0.34      0.00
   -9    3   16     -2.21      0.00
   -8    3   16      1.00      0.00
   -7    3   16      1.48      0.00
   -6    3   16      0.34      0.00
   -5    3   16     -0.60      0.00
   -4    3   16      3.22      0.00
   -3    3   16      4.71      0.00
   -2    3   16     -0.33      0.00
   -1    3   16      2.64      0.00
    0    3   16     -1.20      0.00
    1    3   16      1.70      0.00
    2    3   16     -1.78      0.00
    3    3   16      0.80      0.00
    4    3   16      0.71      0.00
    5    3   16     -1.59      0.00
    6    3   16      3.39      0.00
    7    3   16     -1.22      0.00
    8    3   16     -1.03      0.00
    9    3   16      0.27      0.00
   10    3   16      2.97      0.00
   11    3   16      0.91      0.00
   12    3   16     -0.89      0.00
   13    3   16     -2.30      0.00
   14    3   16      0.98      0.00
   15    3   16     -4.41      0.00
   16    3   16      0.06      0.00
   17    3   16     -2.05      0.00
   18    3   16      3.57      0.00
   19    3   16      3.91      0.00
   20    3   16     -0.20      0.00
  -25    4   16     -0.16      0.00
  -24    4   16      1.85      0.00
  -23    4   16      3.50      0.00
  -22    4   16      3.38      0.00
  -21    4   16     -3.83      0.00
  -20    4   16     -0.59      0.00
  -19    4   16     -0.01      0.00
  -18    4   16      0.77      0.00
  -17    4   16     -0.82      0.00
  -16    4   16     -2.07      0.00
  -15    4   16     -1.23      0.00
  -14    4   16     -1.51      0.00
  -13    4   16      2.77      0.00
  -12    4   16     -2.82      0.00
  -11    4   16     -1.66      0.00
  -10    4   16      1.84      0.00
   -9    4   16      1.33      0.00
   -8    4   16      0.55      0.00
   -7    4   16     -0.25      0.00
   -6    4   16     -0.91      0.00
   -5    4   16      2.22      0.00
   -4    4   16      3.21      0.00
   -3    4   16      1.60      0.00
   -2    4   16      1.51      0.00
   -1    4   16     -0.39      0.00
    0    4   16     -1.55      0.00
    1    4   16      1.84      0.00
    2    4   16      0.28      0.00
    3    4   16      0.50      0.00
    4    4   16      0.37      0.00
    5    4   16     -0.03      0.00
    6    4   16     -0.20      0.00
    7    4   16     -0.59      0.00
    8    4   16      0.34      0.00
    9    4   16      2.90      0.00
   10    4   16     -2.53      0.00
   11    4   16      1.02      0.00
   12    4   16     -0.34      0.00
   13    4   16     -0.61      0.00
   14    4   16      3.63      0.00
   15    4   16      1.41      0.00
   16    4   16     -1.73      0.00
   17    4   16      5.34      0.00
   18    4   16     -0.22      0.00
   19    4   16     -4.15      0.00
  -23    5   16      0.57      0.00
  -22    5   16     -3.46      0.00
  -21    5   16     -1.30      0.00
  -20    5   16      3.47      0.00
  -19    5   16      1.14      0.00
  -18    5   16     -1.47      0.00
  -17    5   16      1.08      0.00
  -16    5   16      0.06      0.00
  -15    5   16      0.47      0.00
  -14    5   16      2.93      0.00
  -13    5   16     -0.76      0.00
  -12    5   16     -3.33      0.00
  -11    5   16     -0.72      0.00
  -10    5   16      0.69      0.00
   -9    5   16      2.29      0.00
   -8    5   16      2.12      0.00
   -7    5   16      2.02      0.00
   -6    5   16     -0.42      0.00
   -5    5   16      1.45      0.00
   -4    5   16      0.98      0.00
   -3    5   16      1.62      0.00
   -2    5   16      0.94      0.00
   -1    5   16      1.78      0.00
    0    5   16     -1.14      0.00
    1    5   16     -0.08      0.00
    2    5   16     -2.13      0.00
    3    5   16     -0.93      0.00
    4    5   16      3.95      0.00
    5    5   16     -0.02      0.00
    6    5   16      2.06      0.00
    7    5   16      0.02      0.00
    8    5   16      0.69      0.00
    9    5   16     -0.34      0.00
   10    5   16     -0.26      0.00
   11    5   16      2.81      0.00
   12    5   16      0.77      0.00
   13    5   16     -0.25      0.00
   14    5   16      1.82      0.00
   15    5   16     -4.57      0.00
   16    5   16      1.72      0.00
   17    5   16     -0.85      0.00
   18    5   16      2.49      0.00
  -21    6   16      0.75      0.00
  -20    6   16      3.14      0.00
  -19    6   16      0.91      0.00
  -18    6   16     -0.36      0.00
  -17    6   16     -3.14      0.00
  -16    6   16     -2.39      0.00
  -15    6   16     -0.25      0.00
  -14    6   16     -0.03      0.00
  -13    6   16      1.91      0.00
  -12    6   16     -0.04      0.00
  -11    6   16      3.19      0.00
  -10    6   16     -1.48      0.00
   -9    6   16      1.75      0.00
   -8    6   16      2.33      0.00
   -7    6   16     -1.37      0.00
   -6    6   16     -1.70      0.00
   -5    6   16     -0.03      0.00
   -4    6   16      3.82      0.00
   -3    6   16     -0.52      0.00
   -2    6   16      0.73      0.00
   -1    6   16     -0.26      0.00
    0    6   16      0.30      0.00
    1    6   16     -2.13      0.00
    2    6   16      2.52      0.00
    3    6   16     -0.46      0.00
    4    6   16      0.09      0.00
    5    6   16     -0.91      0.00
    6    6   16      1.29      0.00
    7    6   16      0.04      0.00
    8    6   16     -1.94      0.00
    9    6   16     -1.80      0.00
   10    6   16     -0.27      0.00
   11    6   16     -3.19      0.00
   12    6   16      4.61      0.00
   13    6   16     -3.32      0.00
   14    6   16     -5.89      0.00
   15    6   16      1.38      0.00
   16    6   16      1.29      0.00
  -19    7   16     -0.76      0.00
  -18    7   16      1.69      0.00
  -17    7   16     -2.61      0.00
  -16    7   16     -0.89      0.00
  -15    7   16      2.37      0.00
  -14    7   16     -0.79      0.00
  -13    7   16      0.91      0.00
  -12    7   16      1.63      0.00
  -11    7   16      1.13      0.00
  -10    7   16     -0.63      0.00
   -9    7   16     -0.94      0.00
   -8    7   16      0.62      0.00
   -7    7   16      1.81      0.00
   -6    7   16      0.00      0.00
   -5    7   16      0.83      0.00
   -4    7   16     -1.68      0.00
   -3    7   16      2.43      0.00
   -2    7   16      0.07      0.00
   -1    7   16     -2.53      0.00
    0    7   16      2.08      0.00
    1    7   16     -3.08      0.00
    2    7   16     -1.12      0.00
    3    7   16      0.43      0.00
    4    7   16     -1.91      0.00
    5    7   16      0.70      0.00
    6    7   16      1.03      0.00
    7    7   16     -1.28      0.00
    8    7   16     -1.66      0.00
    9    7   16     -2.92      0.00
   10    7   16     -0.98      0.00
   11    7   16      0.23      0.00
   12    7   16      0.24      0.00
   13    7   16     -1.81      0.00
  -15    8   16     -4.40      0.00
  -14    8   16     -0.62      0.00
  -13    8   16      1.62      0.00
  -12    8   16     -1.53      0.00
  -11    8   16     -1.13      0.00
  -10    8   16     -0.34      0.00
   -9    8   16     -3.72      0.00
   -8    8   16      1.50      0.00
   -7    8   16     -2.60      0.00
   -6    8   16      6.59      0.00
   -5    8   16     -0.59      0.00
   -4    8   16     -4.43      0.00
   -3    8   16      1.30      0.00
   -2    8   16     -1.09      0.00
   -1    8   16     -0.45      0.00
    0    8   16     -0.20      0.00
    1    8   16      0.34      0.00
    2    8   16     -1.36      0.00
    3    8   16      2.30      0.00
    4    8   16     -2.86      0.00
    5    8   16     -2.37      0.00
    6    8   16      2.13      0.00
    7    8   16     -4.44      0.00
    8    8   16      0.86      0.00
    9    8   16     -0.98      0.00
   10    8   16      0.34      0.00
   -9    9   16     -3.14      0.00
   -8    9   16     -3.77      0.00
   -7    9   16      1.17      0.00
   -6    9   16     -0.32      0.00
   -5    9   16      3.29      0.00
   -4    9   16      1.31      0.00
   -3    9   16      3.16      0.00
   -2    9   16     -2.65      0.00
   -1    9   16     -0.19      0.00
    0    9   16      3.63      0.00
    1    9   16      1.55      0.00
    2    9   16     -0.29      0.00
    3    9   16     -0.24      0.00
    4    9   16     -1.72      0.00
  -27    0   17     -5.75      0.00
  -25    0   17      2.75      0.00
  -23    0   17     -0.29      0.00
  -21    0   17     -0.45      0.00
  -19    0   17     -5.19      0.00
  -17    0   17     -0.51      0.00
  -15    0   17     -0.96      0.00
  -13    0   17      5.22      0.00
  -11    0   17      6.59      0.00
   -9    0   17     -1.15      0.00
   -7    0   17     -2.54      0.00
   -5    0   17     -0.70      0.00
   -3    0   17      7.25      0.00
   -1    0   17     -6.70      0.00
    1    0   17     -4.60      0.00
    3    0   17      3.95      0.00
    5    0   17      3.51      0.00
    7    0   17      7.70      0.00
    9    0   17      3.43      0.00
   11    0   17     -3.15      0.00
   13    0   17     -1.62      0.00
   15    0   17     -1.61      0.00
   17    0   17      0.36      0.00
   19    0   17      2.97      0.00
   21    0   17      0.88      0.00
  -27    1   17     -1.81      0.00
  -26    1   17     -1.46      0.00
  -25    1   17      1.39      0.00
  -24    1   17      3.18      0.00
  -23    1   17      1.05      0.00
  -22    1   17     -2.43      0.00
  -21    1   17      1.16      0.00
  -20    1   17      1.06      0.00
  -19    1   17     -0.19      0.00
  -18    1   17      1.47      0.00
  -17    1   17      0.28      0.00
  -16    1   17      1.19      0.00
  -15    1   17     -0.66      0.00
  -14    1   17      0.51      0.00
  -13    1   17      0.83      0.00
  -12    1   17      5.60      0.00
  -11    1   17     -0.06      0.00
  -10    1   17      3.89      0.00
   -9    1   17     -3.57      0.00
   -8    1   17      2.85      0.00
   -7    1   17     -2.05      0.00
   -6    1   17      0.04      0.00
   -5    1   17      3.44      0.00
   -4    1   17     -1.35      0.00
   -3    1   17     -1.65      0.00
   -2    1   17      2.75      0.00
   -1    1   17     -9.96      0.00
    0    1   17      3.35      0.00
    1    1   17      3.43      0.00
    2    1   17      1.19      0.00
    3    1   17      2.21      0.00
    4    1   17      4.16      0.00
    5    1   17      1.45      0.00
    6    1   17      5.20      0.00
    7    1   17      0.08      0.00
    8    1   17      1.95      0.00
    9    1   17     -1.61      0.00
   10    1   17     -1.04      0.00
   11    1   17     -1.96      0.00
   12    1   17     -0.89      0.00
   13    1   17      1.16      0.00
   14    1   17     -2.08      0.00
   15    1   17      0.47      0.00
   16    1   17      0.67      0.00
   17    1   17     -0.39      0.00
   18    1   17     -1.84      0.00
   19    1   17     -1.68      0.00
   20    1   17     -3.51      0.00
   21    1   17     -2.32      0.00
  -26    2   17      1.17      0.00
  -25    2   17     -1.51      0.00
  -24    2   17     -0.32      0.00
  -23    2   17     -2.17      0.00
  -22    2   17     -2.92      0.00
  -21    2   17      3.05      0.00
  -20    2   17      0.91      0.00
  -19    2   17     -3.63      0.00
  -18    2   17      0.45      0.00
  -17    2   17      2.30      0.00
  -16    2   17     -0.73      0.00
  -15    2   17      0.70      0.00
  -14    2   17      2.81      0.00
  -13    2   17      1.54      0.00
  -12    2   17      1.38      0.00
  -11    2   17      5.86      0.00
  -10    2   17     -0.67      0.00
   -9    2   17      0.33      0.00
   -8    2   17     -2.03      0.00
   -7    2   17     -1.38      0.00
   -6    2   17     -3.08      0.00
   -5    2   17      1.62      0.00
   -4    2   17     -0.27      0.00
   -3    2   17     -5.10      0.00
   -2    2   17      0.08      0.00
   -1    2   17     -1.09      0.00
    0    2   17     -2.19      0.00
    1    2   17      3.74      0.00
    2    2   17     -1.85      0.00
    3    2   17      1.07      0.00
    4    2   17     -3.17      0.00
    5    2   17      2.48      0.00
    6    2   17     -1.02      0.00
    7    2   17      3.52      0.00
    8    2   17     -1.15      0.00
    9    2   17     -6.35      0.00
   10    2   17     -1.03      0.00
   11    2   17     -0.06      0.00
   12    2   17     -3.19      0.00
   13    2   17     -0.96      0.00
   14    2   17     -0.57      0.00
   15    2   17     -0.21      0.00
   16    2   17     -1.66      0.00
   17    2   17      7.54      0.00
   18    2   17     -2.39      0.00
   19    2   17     -5.47      0.00
   20    2   17      1.49      0.00
  -25    3   17     -2.31      0.00
  -24    3   17     -0.59      0.00
  -23    3   17     -0.95      0.00
  -22    3   17      3.32      0.00
  -21    3   17     -1.17      0.00
  -20    3   17     -1.79      0.00
  -19    3   17     -0.98      0.00
  -18    3   17      0.18      0.00
  -17    3   17      0.11      0.00
  -16    3   17      1.10      0.00
  -15    3   17     -0.41      0.00
  -14    3   17      1.32      0.00
  -13    3   17      0.08      0.00
  -12    3   17      2.10      0.00
  -11    3   17     -1.75      0.00
  -10    3   17     -0.46      0.00
   -9    3   17     -0.68      0.00
   -8    3   17      1.17      0.00
   -7    3   17     -1.58      0.00
   -6    3   17     -3.08      0.00
   -5    3   17      1.11      0.00
   -4    3   17     -0.08      0.00
   -3    3   17     -1.58      0.00
   -2    3   17     -1.81      0.00
   -1    3   17     -1.79      0.00
    0    3   17     -1.50      0.00
    1    3   17     -2.35      0.00
    2    3   17     -0.54      0.00
    3    3   17      0.42      0.00
    4    3   17     -1.97      0.00
    5    3   17      0.55      0.00
    6    3   17      1.28      0.00
    7    3   17     -1.07      0.00
    8    3   17      0.59      0.00
    9    3   17      1.83      0.00
   10    3   17      0.21      0.00
   11    3   17     -2.36      0.00
   12    3   17     -2.25      0.00
   13    3   17      0.80      0.00
   14    3   17     -2.39      0.00
   15    3   17     -0.78      0.00
   16    3   17     -0.12      0.00
   17    3   17      3.43      0.00
   18    3   17      5.23      0.00
   19    3   17     -2.79      0.00
   20    3   17     -0.74      0.00
  -24    4   17      3.27      0.00
  -23    4   17      2.47      0.00
  -22    4   17     -2.92      0.00
  -21    4   17     -1.54      0.00
  -20    4   17      2.06      0.00
  -19    4   17      1.11      0.00
  -18    4   17      1.05      0.00
  -17    4   17     -1.20      0.00
  -16    4   17     -0.04      0.00
  -15    4   17      0.36      0.00
  -14    4   17      2.10      0.00
  -13    4   17      1.59      0.00
  -12    4   17     -1.25      0.00
  -11    4   17      3.42      0.00
  -10    4   17      1.25      0.00
   -9    4   17     -0.37      0.00
   -8    4   17     -0.64      0.00
   -7    4   17     -2.12      0.00
   -6    4   17      0.41      0.00
   -5    4   17      1.25      0.00
   -4    4   17     -2.50      0.00
   -3    4   17     -0.52      0.00
   -2    4   17     -2.46      0.00
   -1    4   17     -0.87      0.00
    0    4   17      0.65      0.00
    1    4   17      0.54      0.00
    2    4   17     -1.75      0.00
    3    4   17      0.10      0.00
    4    4   17     -1.94      0.00
    5    4   17     -0.93      0.00
    6    4   17     -0.58      0.00
    7    4   17     -1.24      0.00
    8    4   17      2.59      0.00
    9    4   17     -1.66      0.00
   10    4   17     -0.79      0.00
   11    4   17      0.13      0.00
   12    4   17     -2.73      0.00
   13    4   17      4.22      0.00
   14    4   17      1.12      0.00
   15    4   17     -0.71      0.00
   16    4   17      2.04      0.00
   17    4   17      1.06      0.00
   18    4   17     -4.75      0.00
   19    4   17     -0.36      0.00
  -23    5   17     -1.35      0.00
  -22    5   17     -0.33      0.00
  -21    5   17      2.59      0.00
  -20    5   17      0.40      0.00
  -19    5   17     -0.92      0.00
  -18    5   17      0.30      0.00
  -17    5   17      2.88      0.00
  -16    5   17     -0.95      0.00
  -15    5   17      1.79      0.00
  -14    5   17      0.28      0.00
  -13    5   17     -4.54      0.00
  -12    5   17      0.48      0.00
  -11    5   17      0.32      0.00
  -10    5   17      1.53      0.00
   -9    5   17      0.31      0.00
   -8    5   17     -1.16      0.00
   -7    5   17     -2.17      0.00
   -6    5   17     -2.04      0.00
   -5    5   17     -0.60      0.00
   -4    5   17     -1.04      0.00
   -3    5   17      0.47      0.00
   -2    5   17     -1.85      0.00
   -1    5   17     -0.22      0.00
    0    5   17     -0.97      0.00
    1    5   17      0.61      0.00
    2    5   17     -1.97      0.00
    3    5   17      4.74      0.00
    4    5   17      0.05      0.00
    5    5   17      0.67      0.00
    6    5   17     -1.51      0.00
    7    5   17     -0.11      0.00
    8    5   17     -0.70      0.00
    9    5   17      0.25      0.00
   10    5   17      0.63      0.00
   11    5   17     -0.84      0.00
   12    5   17     -2.76      0.00
   13    5   17      0.80      0.00
   14    5   17     -4.12      0.00
   15    5   17     -0.10      0.00
   16    5   17     -0.30      0.00
   17    5   17      1.02      0.00
  -21    6   17      2.51      0.00
  -20    6   17      1.01      0.00
  -19    6   17     -1.69      0.00
  -18    6   17     -0.49      0.00
  -17    6   17     -2.07      0.00
  -16    6   17      2.11      0.00
  -15    6   17     -0.62      0.00
  -14    6   17      2.43      0.00
  -13    6   17     -0.96      0.00
  -12    6   17      0.84      0.00
  -11    6   17     -1.03      0.00
  -10    6   17     -0.78      0.00
   -9    6   17      2.66      0.00
   -8    6   17     -4.93      0.00
   -7    6   17     -2.79      0.00
   -6    6   17      1.64      0.00
   -5    6   17      2.28      0.00
   -4    6   17     -0.19      0.00
   -3    6   17     -2.37      0.00
   -2    6   17      1.38      0.00
   -1    6   17     -0.80      0.00
    0    6   17     -0.15      0.00
    1    6   17      1.41      0.00
    2    6   17      0.97      0.00
    3    6   17     -1.34      0.00
    4    6   17     -0.69      0.00
    5    6   17     -0.49      0.00
    6    6   17     -1.01      0.00
    7    6   17     -2.25      0.00
    8    6   17     -2.05      0.00
    9    6   17      0.73      0.00
   10    6   17     -2.57      0.00
   11    6   17      1.69      0.00
   12    6   17     -2.44      0.00
   13    6   17     -6.23      0.00
   14    6   17      0.78      0.00
   15    6   17      4.04      0.00
  -18    7   17     -0.90      0.00
  -17    7   17     -0.18      0.00
  -16    7   17      3.47      0.00
  -15    7   17      1.67      0.00
  -14    7   17     -0.35      0.00
  -13    7   17      0.96      0.00
  -12    7   17      0.41      0.00
  -11    7   17     -2.02      0.00
  -10    7   17     -2.59      0.00
   -9    7   17      0.16      0.00
   -8    7   17     -2.32      0.00
   -7    7   17     -0.43      0.00
   -6    7   17     -0.52      0.00
   -5    7   17      0.23      0.00
   -4    7   17     -0.32      0.00
   -3    7   17      2.27      0.00
   -2    7   17     -3.05      0.00
   -1    7   17      0.90      0.00
    0    7   17      0.22      0.00
    1    7   17     -3.42      0.00
    2    7   17      2.33      0.00
    3    7   17     -1.65      0.00
    4    7   17      2.13      0.00
    5    7   17      1.74      0.00
    6    7   17     -0.44      0.00
    7    7   17     -0.97      0.00
    8    7   17     -0.95      0.00
    9    7   17      3.38      0.00
   10    7   17      2.82      0.00
   11    7   17      3.72      0.00
   12    7   17     -0.72      0.00
   13    7   17      0.81      0.00
  -15    8   17     -1.53      0.00
  -14    8   17      1.43      0.00
  -13    8   17      1.02      0.00
  -12    8   17     -2.57      0.00
  -11    8   17     -0.64      0.00
  -10    8   17     -1.99      0.00
   -9    8   17      2.42      0.00
   -8    8   17      0.80      0.00
   -7    8   17      2.90      0.00
   -6    8   17      3.95      0.00
   -5    8   17     -7.51      0.00
   -4    8   17      3.64      0.00
   -3    8   17     -0.39      0.00
   -2    8   17     -0.87      0.00
   -1    8   17     -1.92      0.00
    0    8   17     -0.44      0.00
    1    8   17      0.09      0.00
    2    8   17      2.21      0.00
    3    8   17     -2.43      0.00
    4    8   17     -2.47      0.00
    5    8   17      2.19      0.00
    6    8   17     -0.38      0.00
    7    8   17     -0.54      0.00
    8    8   17      3.79      0.00
    9    8   17     -0.76      0.00
   -9    9   17     -2.18      0.00
   -8    9   17      2.55      0.00
   -7    9   17      4.15      0.00
   -6    9   17      3.29      0.00
   -5    9   17     -0.98      0.00
   -4    9   17      0.42      0.00
   -3    9   17     -0.62      0.00
   -2    9   17     -1.42      0.00
   -1    9   17      4.09      0.00
    0    9   17      0.05      0.00
    1    9   17     -2.84      0.00
    2    9   17      0.83      0.00
    3    9   17     -0.52      0.00
  -26    0   18      3.09      0.00
  -24    0   18      1.06      0.00
  -22    0   18     -1.38      0.00
  -20    0   18     -4.38      0.00
  -18    0   18     -0.62      0.00
  -16    0   18     -1.17      0.00
  -14    0   18      1.38      0.00
  -12    0   18     -2.38      0.00
  -10    0   18     -6.64      0.00
   -8    0   18     -2.56      0.00
   -6    0   18      4.64      0.00
   -4    0   18      6.11      0.00
   -2    0   18     -8.89      0.00
    0    0   18     -6.38      0.00
    2    0   18     -0.20      0.00
    4    0   18     -2.28      0.00
    6    0   18      2.38      0.00
    8    0   18     -0.38      0.00
   10    0   18      0.02      0.00
   12    0   18      0.37      0.00
   14    0   18      1.77      0.00
   16    0   18      3.02      0.00
   18    0   18      3.05      0.00
   20    0   18     -0.72      0.00
  -26    1   18      1.68      0.00
  -25    1   18      5.19      0.00
  -24    1   18      0.47      0.00
  -23    1   18     -1.18      0.00
  -22    1   18     -0.16      0.00
  -21    1   18     -0.03      0.00
  -20    1   18      0.02      0.00
  -19    1   18      0.04      0.00
  -18    1   18      1.18      0.00
  -17    1   18      0.41      0.00
  -16    1   18      1.85      0.00
  -15    1   18     -0.43      0.00
  -14    1   18      1.46      0.00
  -13    1   18      0.59      0.00
  -12    1   18      0.58      0.00
  -11    1   18     -3.49      0.00
  -10    1   18     -0.80      0.00
   -9    1   18     -0.88      0.00
   -8    1   18      2.31      0.00
   -7    1   18     -2.18      0.00
   -6    1   18      4.88      0.00
   -5    1   18     -2.39      0.00
   -4    1   18     -3.21      0.00
   -3    1   18      2.42      0.00
   -2    1   18     -5.54      0.00
   -1    1   18     -1.98      0.00
    0    1   18      8.60      0.00
    1    1   18     -4.76      0.00
    2    1   18      4.26      0.00
    3    1   18     -2.90      0.00
    4    1   18      0.91      0.00
    5    1   18     -3.60      0.00
    6    1   18     -0.98      0.00
    7    1   18     -4.27      0.00
    8    1   18      0.27      0.00
    9    1   18     -1.99      0.00
   10    1   18     -1.10      0.00
   11    1   18      1.21      0.00
   12    1   18      2.16      0.00
   13    1   18     -1.75      0.00
   14    1   18      1.17      0.00
   15    1   18      1.71      0.00
   16    1   18     -0.93      0.00
   17    1   18      0.76      0.00
   18    1   18      0.61      0.00
   19    1   18     -2.09      0.00
   20    1   18     -1.22      0.00
  -26    2   18     -2.07      0.00
  -25    2   18      0.50      0.00
  -24    2   18     -0.20      0.00
  -23    2   18     -2.70      0.00
  -22    2   18      0.88      0.00
  -21    2   18      2.35      0.00
  -20    2   18     -5.87      0.00
  -19    2   18     -0.05      0.00
  -18    2   18      2.01      0.00
  -17    2   18     -1.64      0.00
  -16    2   18     -1.94      0.00
  -15    2   18      1.64      0.00
  -14    2   18     -1.41      0.00
  -13    2   18     -0.79      0.00
  -12    2   18     -0.04      0.00
  -11    2   18     -0.79      0.00
  -10    2   18     -4.82      0.00
   -9    2   18      0.72      0.00
   -8    2   18     -1.63      0.00
   -7    2   18      1.08      0.00
   -6    2   18      2.42      0.00
   -5    2   18      0.61      0.00
   -4    2   18     -0.04      0.00
   -3    2   18      0.79      0.00
   -2    2   18      2.39      0.00
   -1    2   18     -2.94      0.00
    0    2   18      2.36      0.00
    1    2   18     -0.64      0.00
    2    2   18     -3.70      0.00
    3    2   18     -1.38      0.00
    4    2   18     -1.09      0.00
    5    2   18      1.53      0.00
    6    2   18     -2.56      0.00
    7    2   18      2.21      0.00
    8    2   18     -6.44      0.00
    9    2   18      0.91      0.00
   10    2   18      3.21      0.00
   11    2   18     -1.04      0.00
   12    2   18      0.12      0.00
   13    2   18      0.05      0.00
   14    2   18     -0.88      0.00
   15    2   18      0.49      0.00
   16    2   18      6.27      0.00
   17    2   18     -1.61      0.00
   18    2   18     -7.48      0.00
   19    2   18      5.20      0.00
   20    2   18      2.96      0.00
  -25    3   18     -0.12      0.00
  -24    3   18      2.02      0.00
  -23    3   18      3.76      0.00
  -22    3   18      0.49      0.00
  -21    3   18     -2.87      0.00
  -20    3   18      0.13      0.00
  -19    3   18      1.40      0.00
  -18    3   18      2.31      0.00
  -17    3   18      0.00      0.00
  -16    3   18     -0.26      0.00
  -15    3   18     -0.77      0.00
  -14    3   18      1.10      0.00
  -13    3   18     -1.18      0.00
  -12    3   18     -1.19      0.00
  -11    3   18     -2.40      0.00
  -10    3   18      1.21      0.00
   -9    3   18      1.10      0.00
   -8    3   18      1.90      0.00
   -7    3   18     -0.10      0.00
   -6    3   18      3.06      0.00
   -5    3   18      1.88      0.00
   -4    3   18      1.30      0.00
   -3    3   18      0.73      0.00
   -2    3   18      0.49      0.00
   -1    3   18     -2.21      0.00
    0    3   18      0.94      0.00
    1    3   18     -0.54      0.00
    2    3   18      2.87      0.00
    3    3   18     -1.43      0.00
    4    3   18      1.05      0.00
    5    3   18      2.54      0.00
    6    3   18      0.25      0.00
    7    3   18      0.29      0.00
    8    3   18     -0.35      0.00
    9    3   18      1.02      0.00
   10    3   18     -2.00      0.00
   11    3   18     -1.27      0.00
   12    3   18      2.26      0.00
   13    3   18     -0.27      0.00
   14    3   18     -0.54      0.00
   15    3   18      2.34      0.00
   16    3   18      3.51      0.00
   17    3   18      5.16      0.00
   18    3   18     -3.69      0.00
   19    3   18     -3.15      0.00
  -24    4   18     -2.32      0.00
  -23    4   18     -3.74      0.00
  -22    4   18     -0.92      0.00
  -21    4   18     -0.37      0.00
  -20    4   18      1.22      0.00
  -19    4   18     -0.83      0.00
  -18    4   18     -1.60      0.00
  -17    4   18      0.02      0.00
  -16    4   18      0.15      0.00
  -15    4   18      1.84      0.00
  -14    4   18      0.78      0.00
  -13    4   18      0.00      0.00
  -12    4   18      0.15      0.00
  -11    4   18      0.65      0.00
  -10    4   18     -1.05      0.00
   -9    4   18     -0.23      0.00
   -8    4   18      0.32      0.00
   -7    4   18      1.67      0.00
   -6    4   18      2.76      0.00
   -5    4   18     -2.40      0.00
   -4    4   18      2.12      0.00
   -3    4   18      0.39      0.00
   -2    4   18      0.70      0.00
   -1    4   18      1.73      0.00
    0    4   18     -0.16      0.00
    1    4   18     -0.48      0.00
    2    4   18     -0.02      0.00
    3    4   18     -0.27      0.00
    4    4   18     -0.45      0.00
    5    4   18      2.12      0.00
    6    4   18      0.30      0.00
    7    4   18      1.02      0.00
    8    4   18      1.03      0.00
    9    4   18     -2.25      0.00
   10    4   18      1.47      0.00
   11    4   18     -2.03      0.00
   12    4   18      2.47      0.00
   13    4   18      3.68      0.00
   14    4   18     -1.29      0.00
   15    4   18      1.04      0.00
   16    4   18     -0.41      0.00
   17    4   18     -2.73      0.00
   18    4   18     -1.60      0.00
  -23    5   18     -1.25      0.00
  -22    5   18     -1.07      0.00
  -21    5   18      0.16      0.00
  -20    5   18     -2.81      0.00
  -19    5   18      1.47      0.00
  -18    5   18      1.88      0.00
  -17    5   18     -0.79      0.00
  -16    5   18     -1.00      0.00
  -15    5   18      0.17      0.00
  -14    5   18     -3.80      0.00
  -13    5   18      0.03      0.00
  -12    5   18      0.80      0.00
  -11    5   18     -0.08      0.00
  -10    5   18      0.13      0.00
   -9    5   18     -0.49      0.00
   -8    5   18     -0.28      0.00
   -7    5   18      1.09      0.00
   -6    5   18      0.04      0.00
   -5    5   18      2.69      0.00
   -4    5   18      0.86      0.00
   -3    5   18      0.92      0.00
   -2    5   18     -0.29      0.00
   -1    5   18      1.32      0.00
    0    5   18      0.13      0.00
    1    5   18     -1.05      0.00
    2    5   18      2.55      0.00
    3    5   18      1.35      0.00
    4    5   18     -0.24      0.00
    5    5   18     -1.46      0.00
    6    5   18     -0.83      0.00
    7    5   18      0.22      0.00
    8    5   18      0.02      0.00
    9    5   18      0.68      0.00
   10    5   18     -0.86      0.00
   11    5   18     -2.49      0.00
   12    5   18      2.99      0.00
   13    5   18     -1.85      0.00
   14    5   18     -0.03      0.00
   15    5   18      0.86      0.00
   16    5   18     -0.53      0.00
   17    5   18      3.48      0.00
  -21    6   18     -2.02      0.00
  -20    6   18     -1.57      0.00
  -19    6   18     -1.68      0.00
  -18    6   18     -1.22      0.00
  -17    6   18     -0.32      0.00
  -16    6   18     -0.87      0.00
  -15    6   18      1.01      0.00
  -14    6   18     -0.41      0.00
  -13    6   18     -0.25      0.00
  -12    6   18      0.63      0.00
  -11    6   18     -0.02      0.00
  -10    6   18      4.94      0.00
   -9    6   18     -3.57      0.00
   -8    6   18     -1.50      0.00
   -7    6   18      4.51      0.00
   -6    6   18      2.91      0.00
   -5    6   18     -1.06      0.00
   -4    6   18     -1.63      0.00
   -3    6   18     -0.18      0.00
   -2    6   18      0.14      0.00
   -1    6   18     -0.90      0.00
    0    6   18      0.76      0.00
    1    6   18      0.36      0.00
    2    6   18     -2.04      0.00
    3    6   18      0.33      0.00
    4    6   18     -1.16      0.00
    5    6   18      0.22      0.00
    6    6   18     -1.08      0.00
    7    6   18      0.43      0.00
    8    6   18      2.52      0.00
    9    6   18     -0.21      0.00
   10    6   18      0.87      0.00
   11    6   18      0.53      0.00
   12    6   18     -1.75      0.00
   13    6   18      3.07      0.00
   14    6   18      5.23      0.00
   15    6   18      3.30      0.00
  -18    7   18     -1.71      0.00
  -17    7   18      2.41      0.00
  -16    7   18      0.77      0.00
  -15    7   18     -1.94      0.00
  -14    7   18     -0.70      0.00
  -13    7   18     -0.81      0.00
  -12    7   18     -0.80      0.00
  -11    7   18     -2.43      0.00
  -10    7   18      0.89      0.00
   -9    7   18     -2.15      0.00
   -8    7   18     -0.96      0.00
   -7    7   18      2.73      0.00
   -6    7   18     -0.14      0.00
   -5    7   18     -1.25      0.00
   -4    7   18      0.64      0.00
   -3    7   18     -1.99      0.00
   -2    7   18     -1.56      0.00
   -1    7   18      1.07      0.00
    0    7   18     -4.04      0.00
    1    7   18      1.11      0.00
    2    7   18     -0.28      0.00
    3    7   18      2.92      0.00
    4    7   18      1.20      0.00
    5    7   18     -0.30      0.00
    6    7   18     -3.44      0.00
    7    7   18      0.91      0.00
    8    7   18      1.45      0.00
    9    7   18      5.15      0.00
   10    7   18      0.82      0.00
   11    7   18     -0.67      0.00
   12    7   18     -3.44      0.00
  -14    8   18      1.63      0.00
  -13    8   18     -1.22      0.00
  -12    8   18     -1.71      0.00
  -11    8   18      1.21      0.00
  -10    8   18      3.08      0.00
   -9    8   18      1.39      0.00
   -8    8   18     -0.06      0.00
   -7    8   18      1.90      0.00
   -6    8   18     -5.29      0.00
   -5    8   18     -0.94      0.00
   -4    8   18      1.84      0.00
   -3    8   18     -3.20      0.00
   -2    8   18     -2.13      0.00
   -1    8   18      0.49      0.00
    0    8   18      2.91      0.00
    1    8   18      1.30      0.00
    2    8   18     -0.86      0.00
    3    8   18     -2.35      0.00
    4    8   18      2.87      0.00
    5    8   18      0.97      0.00
    6    8   18     -1.02      0.00
    7    8   18      1.01      0.00
    8    8   18     -0.43      0.00
   -7    9   18      2.22      0.00
   -6    9   18     -6.19      0.00
   -5    9   18     -1.41      0.00
   -4    9   18      1.32      0.00
   -3    9   18     -1.68      0.00
   -2    9   18      3.76      0.00
   -1    9   18     -1.14      0.00
    0    9   18     -3.23      0.00
    1    9   18      0.71      0.00
    2    9   18      1.43      0.00
  -25    0   19     -1.37      0.00
  -23    0   19     -2.92      0.00
  -21    0   19      1.01      0.00
  -19    0   19      5.71      0.00
  -17    0   19      4.07      0.00
  -15    0   19      4.51      0.00
  -13    0   19      1.11      0.00
  -11    0   19      0.12      0.00
   -9    0   19      1.80      0.00
   -7    0   19      5.15      0.00
   -5    0   19      1.30      0.00
   -3    0   19     -7.36      0.00
   -1    0   19      2.67      0.00
    1    0   19      9.44      0.00
    3    0   19      6.30      0.00
    5    0   19      8.27      0.00
    7    0   19      0.24      0.00
    9    0   19     -0.09      0.00
   11    0   19     -1.80      0.00
   13    0   19      1.91      0.00
   15    0   19      0.98      0.00
   17    0   19     -1.72      0.00
   19    0   19     -4.58      0.00
  -26    1   19      4.09      0.00
  -25    1   19      0.39      0.00
  -24    1   19     -2.92      0.00
  -23    1   19     -1.25      0.00
  -22    1   19     -1.07      0.00
  -21    1   19     -0.75      0.00
  -20    1   19      2.02      0.00
  -19    1   19      1.17      0.00
  -18    1   19      1.67      0.00
  -17    1   19      1.93      0.00
  -16    1   19     -0.78      0.00
  -15    1   19      0.01      0.00
  -14    1   19      0.98      0.00
  -13    1   19     -0.12      0.00
  -12    1   19      0.91      0.00
  -11    1   19     -1.08      0.00
  -10    1   19      3.31      0.00
   -9    1   19     -0.37      0.00
   -8    1   19     -0.99      0.00
   -7    1   19      0.43      0.00
   -6    1   19     -1.59      0.00
   -5    1   19     -6.93      0.00
   -4    1   19      2.20      0.00
   -3    1   19     -1.39      0.00
   -2    1   19     -2.04      0.00
   -1    1   19      7.74      0.00
    0    1   19      0.23      0.00
    1    1   19      0.12      0.00
    2    1   19      3.53      0.00
    3    1   19     -3.80      0.00
    4    1   19      2.66      0.00
    5    1   19     -3.66      0.00
    6    1   19      1.29      0.00
    7    1   19     -1.68      0.00
    8    1   19      0.45      0.00
    9    1   19     -3.20      0.00
   10    1   19     -0.06      0.00
   11    1   19      0.05      0.00
   12    1   19     -2.29      0.00
   13    1   19     -0.39      0.00
   14    1   19      2.46      0.00
   15    1   19     -2.87      0.00
   16    1   19      0.81      0.00
   17    1   19     -0.15      0.00
   18    1   19     -4.14      0.00
   19    1   19     -2.88      0.00
   20    1   19      2.69      0.00
  -26    2   19     -1.47      0.00
  -25    2   19      3.40      0.00
  -24    2   19     -3.25      0.00
  -23    2   19     -1.26      0.00
  -22    2   19      2.68      0.00
  -21    2   19     -3.48      0.00
  -20    2   19     -0.52      0.00
  -19    2   19      5.69      0.00
  -18    2   19     -1.50      0.00
  -17    2   19     -0.99      0.00
  -16    2   19      0.02      0.00
  -15    2   19      0.67      0.00
  -14    2   19     -1.70      0.00
  -13    2   19      2.21      0.00
  -12    2   19     -1.22      0.00
  -11    2   19      0.09      0.00
  -10    2   19      0.02      0.00
   -9    2   19      1.42      0.00
   -8    2   19     -1.18      0.00
   -7    2   19      1.40      0.00
   -6    2   19     -1.53      0.00
   -5    2   19     -0.80      0.00
   -4    2   19      0.44      0.00
   -3    2   19      1.77      0.00
   -2    2   19     -3.10      0.00
   -1    2   19      0.98      0.00
    0    2   19     -0.45      0.00
    1    2   19     -0.72      0.00
    2    2   19     -1.05      0.00
    3    2   19      3.01      0.00
    4    2   19      1.96      0.00
    5    2   19     -1.11      0.00
    6    2   19      2.88      0.00
    7    2   19     -1.90      0.00
    8    2   19      1.19      0.00
    9    2   19      2.74      0.00
   10    2   19     -0.16      0.00
   11    2   19     -0.62      0.00
   12    2   19     -0.55      0.00
   13    2   19     -0.40      0.00
   14    2   19      1.69      0.00
   15    2   19      3.95      0.00
   16    2   19     -2.25      0.00
   17    2   19     -8.53      0.00
   18    2   19      4.22      0.00
   19    2   19      2.67      0.00
  -25    3   19      1.21      0.00
  -24    3   19      1.66      0.00
  -23    3   19     -2.06      0.00
  -22    3   19     -4.58      0.00
  -21    3   19      1.31      0.00
  -20    3   19      2.50      0.00
  -19    3   19      3.19      0.00
  -18    3   19      0.16      0.00
  -17    3   19     -1.34      0.00
  -16    3   19      0.21      0.00
  -15    3   19      1.82      0.00
  -14    3   19      0.93      0.00
  -13    3   19     -0.84      0.00
  -12    3   19      1.84      0.00
  -11    3   19      0.48      0.00
  -10    3   19      2.43      0.00
   -9    3   19     -0.50      0.00
   -8    3   19      0.17      0.00
   -7    3   19     -1.77      0.00
   -6    3   19     -0.54      0.00
   -5    3   19     -1.28      0.00
   -4    3   19     -1.20      0.00
   -3    3   19     -1.47      0.00
   -2    3   19     -3.60      0.00
   -1    3   19     -0.28      0.00
    0    3   19      2.04      0.00
    1    3   19      1.05      0.00
    2    3   19      0.88      0.00
    3    3   19     -0.46      0.00
    4    3   19      2.96      0.00
    5    3   19     -0.68      0.00
    6    3   19     -0.72      0.00
    7    3   19     -1.07      0.00
    8    3   19     -0.87      0.00
    9    3   19      0.01      0.00
   10    3   19     -2.24      0.00
   11    3   19      1.50      0.00
   12    3   19      1.81      0.00
   13    3   19     -2.76      0.00
   14    3   19      4.15      0.00
   15    3   19      2.11      0.00
   16    3   19      2.82      0.00
   17    3   19     -5.23      0.00
   18    3   19     -2.38      0.00
   19    3   19      1.48      0.00
  -24    4   19     -4.73      0.00
  -23    4   19      2.82      0.00
  -22    4   19     -1.34      0.00
  -21    4   19     -0.43      0.00
  -20    4   19      0.40      0.00
  -19    4   19     -2.56      0.00
  -18    4   19      1.31      0.00
  -17    4   19      0.38      0.00
  -16    4   19      0.85      0.00
  -15    4   19      0.43      0.00
  -14    4   19     -0.88      0.00
  -13    4   19      0.42      0.00
  -12    4   19     -1.42      0.00
  -11    4   19      0.23      0.00
  -10    4   19     -1.77      0.00
   -9    4   19     -0.57      0.00
   -8    4   19     -0.30      0.00
   -7    4   19     -1.82      0.00
   -6    4   19     -3.60      0.00
   -5    4   19     -1.89      0.00
   -4    4   19      2.63      0.00
   -3    4   19     -4.35      0.00
   -2    4   19      2.01      0.00
   -1    4   19     -3.14      0.00
    0    4   19      0.14      0.00
    1    4   19     -0.56      0.00
    2    4   19     -1.83      0.00
    3    4   19      0.11      0.00
    4    4   19      0.62      0.00
    5    4   19      2.35      0.00
    6    4   19     -2.01      0.00
    7    4   19      1.62      0.00
    8    4   19     -1.33      0.00
    9    4   19      0.71      0.00
   10    4   19     -1.75      0.00
   11    4   19      0.56      0.00
   12    4   19      1.55      0.00
   13    4   19     -0.01      0.00
   14    4   19     -2.98      0.00
   15    4   19     -2.83      0.00
   16    4   19     -1.42      0.00
   17    4   19     -2.62      0.00
   18    4   19      1.23      0.00
  -23    5   19     -0.03      0.00
  -22    5   19      0.72      0.00
  -21    5   19      1.13      0.00
  -20    5   19      0.82      0.00
  -19    5   19      4.53      0.00
  -18    5   19     -2.32      0.00
  -17    5   19     -0.82      0.00
  -16    5   19     -0.81      0.00
  -15    5   19     -2.44      0.00
  -14    5   19      0.71      0.00
  -13    5   19     -0.12      0.00
  -12    5   19     -0.95      0.00
  -11    5   19     -0.65      0.00
  -10    5   19     -0.02      0.00
   -9    5   19      0.40      0.00
   -8    5   19      0.19      0.00
   -7    5   19     -1.20      0.00
   -6    5   19     -0.76      0.00
   -5    5   19      1.67      0.00
   -4    5   19     -2.17      0.00
   -3    5   19      1.35      0.00
   -2    5   19     -1.31      0.00
   -1    5   19      0.56      0.00
    0    5   19     -1.49      0.00
    1    5   19      0.97      0.00
    2    5   19      1.31      0.00
    3    5   19     -1.66      0.00
    4    5   19     -1.10      0.00
    5    5   19     -3.00      0.00
    6    5   19      0.35      0.00
    7    5   19     -0.58      0.00
    8    5   19     -0.27      0.00
    9    5   19     -1.21      0.00
   10    5   19     -2.95      0.00
   11    5   19      0.88      0.00
   12    5   19      0.04      0.00
   13    5   19     -2.09      0.00
   14    5   19      1.37      0.00
   15    5   19     -1.47      0.00
   16    5   19      3.00      0.00
  -21    6   19     -1.40      0.00
  -20    6   19      2.71      0.00
  -19    6   19     -2.53      0.00
  -18    6   19      1.76      0.00
  -17    6   19     -1.18      0.00
  -16    6   19      2.26      0.00
  -15    6   19      1.28      0.00
  -14    6   19     -0.77      0.00
  -13    6   19      1.63      0.00
  -12    6   19     -1.14      0.00
  -11    6   19      3.88      0.00
  -10    6   19     -4.00      0.00
   -9    6   19     -4.93      0.00
   -8    6   19      3.08      0.00
   -7    6   19     -0.35      0.00
   -6    6   19     -2.75      0.00
   -5    6   19     -2.36      0.00
   -4    6   19     -0.76      0.00
   -3    6   19      0.29      0.00
   -2    6   19      0.36      0.00
   -1    6   19      0.92      0.00
    0    6   19      0.72      0.00
    1    6   19     -0.98      0.00
    2    6   19      0.32      0.00
    3    6   19     -0.62      0.00
    4    6   19     -0.33      0.00
    5    6   19     -0.12      0.00
    6    6   19      2.45      0.00
    7    6   19      1.31      0.00
    8    6   19      1.12      0.00
    9    6   19     -3.35      0.00
   10    6   19      0.95      0.00
   11    6   19      0.12      0.00
   12    6   19      2.28      0.00
   13    6   19      1.87      0.00
   14    6   19      1.17      0.00
  -18    7   19      0.56      0.00
  -17    7   19      3.11      0.00
  -16    7   19     -2.96      0.00
  -15    7   19     -0.12      0.00
  -14    7   19     -2.13      0.00
  -13    7   19     -0.57      0.00
  -12    7   19     -1.15      0.00
  -11    7   19     -0.64      0.00
  -10    7   19     -1.66      0.00
   -9    7   19     -1.10      0.00
   -8    7   19      4.81      0.00
   -7    7   19      1.61      0.00
   -6    7   19     -1.47      0.00
   -5    7   19      2.19      0.00
   -4    7   19      0.80      0.00
   -3    7   19     -0.99      0.00
   -2    7   19      1.86      0.00
   -1    7   19     -1.84      0.00
    0    7   19      0.31      0.00
    1    7   19      2.47      0.00
    2    7   19      1.77      0.00
    3    7   19      1.55      0.00
    4    7   19     -3.65      0.00
    5    7   19     -2.06      0.00
    6    7   19     -0.15      0.00
    7    7   19      3.95      0.00
    8    7   19      2.26      0.00
    9    7   19      0.43      0.00
   10    7   19     -5.32      0.00
   11    7   19     -5.45      0.00
  -14    8   19      0.90      0.00
  -13    8   19     -1.65      0.00
  -12    8   19      1.89      0.00
  -11    8   19      2.94      0.00
  -10    8   19      0.36      0.00
   -9    8   19     -2.40      0.00
   -8    8   19      1.71      0.00
   -7    8   19     -1.71      0.00
   -6    8   19     -0.17      0.00
   -5    8   19      2.14      0.00
   -4    8   19     -0.29      0.00
   -3    8   19     -1.56      0.00
   -2    8   19      1.59      0.00
   -1    8   19      6.03      0.00
    0    8   19     -1.03      0.00
    1    8   19      0.53      0.00
    2    8   19     -1.87      0.00
    3    8   19      2.89      0.00
    4    8   19      0.66      0.00
    5    8   19     -0.20      0.00
    6    8   19     -0.52      0.00
    7    8   19      1.41      0.00
    8    8   19      0.05      0.00
   -6    9   19     -2.64      0.00
   -5    9   19      6.16      0.00
   -4    9   19     -2.30      0.00
   -3    9   19      1.94      0.00
   -2    9   19     -0.80      0.00
   -1    9   19     -3.94      0.00
    0    9   19      2.08      0.00
  -26    0   20     -1.31      0.00
  -24    0   20     -0.12      0.00
  -22    0   20      2.36      0.00
  -20    0   20      0.47      0.00
  -18    0   20     -0.54      0.00
  -16    0   20      0.53      0.00
  -14    0   20     -3.49      0.00
  -12    0   20     -3.00      0.00
  -10    0   20     -1.46      0.00
   -8    0   20      0.85      0.00
   -6    0   20     -3.10      0.00
   -4    0   20     -6.47      0.00
   -2    0   20      2.36      0.00
    0    0   20      0.53      0.00
    2    0   20     -5.79      0.00
    4    0   20     -4.21      0.00
    6    0   20     -8.75      0.00
    8    0   20     -0.50      0.00
   10    0   20     -0.12      0.00
   12    0   20      2.14      0.00
   14    0   20      0.02      0.00
   16    0   20     -0.69      0.00
   18    0   20     -1.07      0.00
   20    0   20      2.25      0.00
  -26    1   20      0.90      0.00
  -25    1   20     -1.57      0.00
  -24    1   20     -0.64      0.00
  -23    1   20     -0.50      0.00
  -22    1   20     -0.82      0.00
  -21    1   20      0.31      0.00
  -20    1   20      1.19      0.00
  -19    1   20     -2.77      0.00
  -18    1   20     -0.14      0.00
  -17    1   20     -4.45      0.00
  -16    1   20     -2.57      0.00
  -15    1   20     -2.71      0.00
  -14    1   20     -0.94      0.00
  -13    1   20     -2.93      0.00
  -12    1   20     -0.53      0.00
  -11    1   20     -1.94      0.00
  -10    1   20      0.16      0.00
   -9    1   20     -2.14      0.00
   -8    1   20      1.78      0.00
   -7    1   20      0.19      0.00
   -6    1   20     -3.83      0.00
   -5    1   20      2.92      0.00
   -4    1   20      4.02      0.00
   -3    1   20     -2.04      0.00
   -2    1   20      5.22      0.00
   -1    1   20     -2.46      0.00
    0    1   20     -2.07      0.00
    1    1   20     -2.79      0.00
    2    1   20     -3.70      0.00
    3    1   20     -3.65      0.00
    4    1   20     -1.16      0.00
    5    1   20     -2.63      0.00
    6    1   20     -0.84      0.00
    7    1   20      0.54      0.00
    8    1   20     -1.53      0.00
    9    1   20      2.11      0.00
   10    1   20      0.15      0.00
   11    1   20      0.24      0.00
   12    1   20      0.00      0.00
   13    1   20      2.32      0.00
   14    1   20     -3.03      0.00
   15    1   20      0.50      0.00
   16    1   20     -0.61      0.00
   17    1   20     -3.60      0.00
   18    1   20     -2.16      0.00
   19    1   20      5.05      0.00
  -26    2   20      3.35      0.00
  -25    2   20     -0.62      0.00
  -24    2   20     -3.65      0.00
  -23    2   20      3.49      0.00
  -22    2   20     -1.62      0.00
  -21    2   20     -0.03      0.00
  -20    2   20      5.78      0.00
  -19    2   20     -0.54      0.00
  -18    2   20     -2.58      0.00
  -17    2   20     -0.30      0.00
  -16    2   20      0.08      0.00
  -15    2   20      0.19      0.00
  -14    2   20     -0.94      0.00
  -13    2   20      0.05      0.00
  -12    2   20     -1.48      0.00
  -11    2   20      1.75      0.00
  -10    2   20     -1.25      0.00
   -9    2   20      0.81      0.00
   -8    2   20     -0.38      0.00
   -7    2   20      2.03      0.00
   -6    2   20     -1.12      0.00
   -5    2   20      2.85      0.00
   -4    2   20      1.94      0.00
   -3    2   20     -0.60      0.00
   -2    2   20     -2.33      0.00
   -1    2   20      1.56      0.00
    0    2   20     -2.04      0.00
    1    2   20      1.21      0.00
    2    2   20     -0.06      0.00
    3    2   20      2.72      0.00
    4    2   20     -3.62      0.00
    5    2   20      2.16      0.00
    6    2   20     -0.38      0.00
    7    2   20      0.28      0.00
    8    2   20      2.76      0.00
    9    2   20     -1.10      0.00
   10    2   20      1.43      0.00
   11    2   20     -1.05      0.00
   12    2   20     -0.26      0.00
   13    2   20      3.31      0.00
   14    2   20      1.92      0.00
   15    2   20     -1.33      0.00
   16    2   20     -5.70      0.00
   17    2   20      4.97      0.00
   18    2   20      3.47      0.00
   19    2   20     -1.59      0.00
  -25    3   20     -0.41      0.00
  -24    3   20     -4.02      0.00
  -23    3   20     -5.41      0.00
  -22    3   20      4.02      0.00
  -21    3   20      1.80      0.00
  -20    3   20      1.00      0.00
  -19    3   20     -1.50      0.00
  -18    3   20     -3.44      0.00
  -17    3   20     -0.61      0.00
  -16    3   20      1.89      0.00
  -15    3   20      0.71      0.00
  -14    3   20     -2.25      0.00
  -13    3   20      0.07      0.00
  -12    3   20     -0.34      0.00
  -11    3   20     -1.78      0.00
  -10    3   20      0.48      0.00
   -9    3   20     -0.95      0.00
   -8    3   20      0.60      0.00
   -7    3   20     -0.60      0.00
   -6    3   20      1.54      0.00
   -5    3   20      0.35      0.00
   -4    3   20     -1.01      0.00
   -3    3   20     -0.06      0.00
   -2    3   20     -1.83      0.00
   -1    3   20      4.66      0.00
    0    3   20      0.24      0.00
    1    3   20      0.35      0.00
    2    3   20      0.24      0.00
    3    3   20     -0.27      0.00
    4    3   20      0.27      0.00
    5    3   20     -3.25      0.00
    6    3   20      1.08      0.00
    7    3   20     -2.18      0.00
    8    3   20      0.88      0.00
    9    3   20     -1.41      0.00
   10    3   20      0.32      0.00
   11    3   20      0.91      0.00
   12    3   20     -1.50      0.00
   13    3   20      0.19      0.00
   14    3   20      4.13      0.00
   15    3   20     -2.58      0.00
   16    3   20     -3.05      0.00
   17    3   20     -0.80      0.00
   18    3   20      3.69      0.00
  -24    4   20      4.72      0.00
  -23    4   20     -0.73      0.00
  -22    4   20     -3.27      0.00
  -21    4   20      1.87      0.00
  -20    4   20     -1.92      0.00
  -19    4   20      1.37      0.00
  -18    4   20      1.29      0.00
  -17    4   20     -0.60      0.00
  -16    4   20     -0.04      0.00
  -15    4   20     -2.09      0.00
  -14    4   20      1.00      0.00
  -13    4   20     -1.81      0.00
  -12    4   20      0.06      0.00
  -11    4   20     -1.06      0.00
  -10    4   20     -0.70      0.00
   -9    4   20      1.40      0.00
   -8    4   20     -0.71      0.00
   -7    4   20     -0.32      0.00
   -6    4   20      1.58      0.00
   -5    4   20      3.52      0.00
   -4    4   20     -0.80      0.00
   -3    4   20     -0.03      0.00
   -2    4   20      1.44      0.00
   -1    4   20     -1.23      0.00
    0    4   20      2.19      0.00
    1    4   20     -3.16      0.00
    2    4   20      1.66      0.00
    3    4   20      1.28      0.00
    4    4   20      2.38      0.00
    5    4   20     -1.54      0.00
    6    4   20     -0.22      0.00
    7    4   20      0.30      0.00
    8    4   20      0.07      0.00
    9    4   20     -1.24      0.00
   10    4   20     -0.16      0.00
   11    4   20      2.93      0.00
   12    4   20      0.42      0.00
   13    4   20     -0.73      0.00
   14    4   20     -3.67      0.00
   15    4   20      1.99      0.00
   16    4   20      1.35      0.00
   17    4   20     -0.16      0.00
  -22    5   20     -1.60      0.00
  -21    5   20      1.94      0.00
  -20    5   20     -0.12      0.00
  -19    5   20     -0.11      0.00
  -18    5   20     -3.84      0.00
  -17    5   20      0.41      0.00
  -16    5   20     -2.55      0.00
  -15    5   20      1.20      0.00
  -14    5   20     -0.14      0.00
  -13    5   20     -1.90      0.00
  -12    5   20      0.53      0.00
  -11    5   20      1.93      0.00
  -10    5   20      2.88      0.00
   -9    5   20      1.81      0.00
   -8    5   20      0.40      0.00
   -7    5   20      0.50      0.00
   -6    5   20      3.98      0.00
   -5    5   20      0.89      0.00
   -4    5   20      1.31      0.00
   -3    5   20      0.34      0.00
   -2    5   20     -1.60      0.00
   -1    5   20      0.39      0.00
    0    5   20     -0.47      0.00
    1    5   20      1.52      0.00
    2    5   20     -0.19      0.00
    3    5   20      0.01      0.00
    4    5   20     -1.31      0.00
    5    5   20      0.23      0.00
    6    5   20      0.51      0.00
    7    5   20      1.61      0.00
    8    5   20     -0.83      0.00
    9    5   20      0.51      0.00
   10    5   20      0.83      0.00
   11    5   20      2.74      0.00
   12    5   20      2.01      0.00
   13    5   20      0.93      0.00
   14    5   20      0.09      0.00
   15    5   20      1.80      0.00
   16    5   20      0.44      0.00
  -20    6   20     -1.73      0.00
  -19    6   20     -2.84      0.00
  -18    6   20      2.23      0.00
  -17    6   20     -0.78      0.00
  -16    6   20      3.84      0.00
  -15    6   20     -1.51      0.00
  -14    6   20      1.55      0.00
  -13    6   20     -1.32      0.00
  -12    6   20      2.41      0.00
  -11    6   20     -1.89      0.00
  -10    6   20     -5.23      0.00
   -9    6   20      2.75      0.00
   -8    6   20      1.17      0.00
   -7    6   20     -1.65      0.00
   -6    6   20      0.52      0.00
   -5    6   20     -0.47      0.00
   -4    6   20      1.72      0.00
   -3    6   20      0.77      0.00
   -2    6   20      0.39      0.00
   -1    6   20     -0.94      0.00
    0    6   20     -0.51      0.00
    1    6   20     -0.85      0.00
    2    6   20      0.09      0.00
    3    6   20     -0.18      0.00
    4    6   20      1.00      0.00
    5    6   20      2.31      0.00
    6    6   20      1.56      0.00
    7    6   20     -1.99      0.00
    8    6   20     -2.31      0.00
    9    6   20     -0.28      0.00
   10    6   20      5.08      0.00
   11    6   20      2.71      0.00
   12    6   20     -0.88      0.00
   13    6   20      0.62      0.00
  -18    7   20     -0.99      0.00
  -17    7   20     -1.02      0.00
  -16    7   20     -3.28      0.00
  -15    7   20     -0.28      0.00
  -14    7   20     -1.89      0.00
  -13    7   20      3.25      0.00
  -12    7   20     -0.50      0.00
  -11    7   20      0.29      0.00
  -10    7   20      0.75      0.00
   -9    7   20      6.02      0.00
   -8    7   20      1.99      0.00
   -7    7   20     -1.81      0.00
   -6    7   20     -0.11      0.00
   -5    7   20      0.72      0.00
   -4    7   20     -3.60      0.00
   -3    7   20     -0.30      0.00
   -2    7   20     -1.57      0.00
   -1    7   20     -1.34      0.00
    0    7   20      2.63      0.00
    1    7   20      0.80      0.00
    2    7   20      0.71      0.00
    3    7   20     -3.90      0.00
    4    7   20     -0.66      0.00
    5    7   20      1.23      0.00
    6    7   20      3.30      0.00
    7    7   20      0.34      0.00
    8    7   20     -1.75      0.00
    9    7   20     -5.26      0.00
   10    7   20     -3.82      0.00
   11    7   20      1.47      0.00
  -13    8   20      0.73      0.00
  -12    8   20      1.81      0.00
  -11    8   20     -1.22      0.00
  -10    8   20     -3.15      0.00
   -9    8   20     -0.46      0.00
   -8    8   20      0.84      0.00
   -7    8   20     -3.06      0.00
   -6    8   20      0.00      0.00
   -5    8   20     -1.45      0.00
   -4    8   20     -1.93      0.00
   -3    8   20      0.52      0.00
   -2    8   20      4.79      0.00
   -1    8   20     -0.88      0.00
    0    8   20     -2.44      0.00
    1    8   20      0.37      0.00
    2    8   20     -0.38      0.00
    3    8   20      0.01      0.00
    4    8   20     -1.00      0.00
    5    8   20     -2.51      0.00
    6    8   20      0.84      0.00
    7    8   20     -0.71      0.00
  -25    0   21      0.12      0.00
  -23    0   21      1.58      0.00
  -21    0   21     -0.87      0.00
  -19    0   21      1.07      0.00
  -17    0   21     -0.88      0.00
  -15    0   21     -2.70      0.00
  -13    0   21      3.79      0.00
  -11    0   21      3.89      0.00
   -9    0   21      2.02      0.00
   -7    0   21     -1.59      0.00
   -5    0   21     -2.02      0.00
   -3    0   21      4.54      0.00
   -1    0   21      2.16      0.00
    1    0   21      0.99      0.00
    3    0   21      4.53      0.00
    5    0   21      0.03      0.00
    7    0   21      3.23      0.00
    9    0   21     -3.91      0.00
   11    0   21     -3.60      0.00
   13    0   21     -2.28      0.00
   15    0   21     -2.24      0.00
   17    0   21     -4.07      0.00
   19    0   21     -0.72      0.00
  -26    1   21     -1.17      0.00
  -25    1   21      0.20      0.00
  -24    1   21     -1.55      0.00
  -23    1   21     -0.49      0.00
  -22    1   21      0.90      0.00
  -21    1   21      2.45      0.00
  -20    1   21      0.51      0.00
  -19    1   21     -0.74      0.00
  -18    1   21     -0.51      0.00
  -17    1   21     -2.38      0.00
  -16    1   21      0.46      0.00
  -15    1   21      0.10      0.00
  -14    1   21      3.02      0.00
  -13    1   21      0.32      0.00
  -12    1   21      3.41      0.00
  -11    1   21      0.02      0.00
  -10    1   21      2.72      0.00
   -9    1   21      1.37      0.00
   -8    1   21      1.36      0.00
   -7    1   21     -2.68      0.00
   -6    1   21      1.96      0.00
   -5    1   21      3.67      0.00
   -4    1   21     -0.95      0.00
   -3    1   21      0.18      0.00
   -2    1   21      0.55      0.00
   -1    1   21     -2.97      0.00
    0    1   21      3.63      0.00
    1    1   21     -1.76      0.00
    2    1   21      4.52      0.00
    3    1   21      1.82      0.00
    4    1   21      4.70      0.00
    5    1   21     -0.08      0.00
    6    1   21      4.04      0.00
    7    1   21      0.96      0.00
    8    1   21      0.27      0.00
    9    1   21      0.19      0.00
   10    1   21     -1.74      0.00
   11    1   21      0.38      0.00
   12    1   21      1.80      0.00
   13    1   21     -2.99      0.00
   14    1   21      0.41      0.00
   15    1   21     -1.19      0.00
   16    1   21     -4.94      0.00
   17    1   21     -0.88      0.00
   18    1   21      3.40      0.00
   19    1   21      2.75      0.00
  -26    2   21      1.88      0.00
  -25    2   21     -7.64      0.00
  -24    2   21      1.17      0.00
  -23    2   21     -2.11      0.00
  -22    2   21     -1.01      0.00
  -21    2   21      6.89      0.00
  -20    2   21     -0.99      0.00
  -19    2   21     -2.44      0.00
  -18    2   21     -0.11      0.00
  -17    2   21      0.00      0.00
  -16    2   21      2.95      0.00
  -15    2   21     -0.21      0.00
  -14    2   21      1.71      0.00
  -13    2   21      3.93      0.00
  -12    2   21      1.78      0.00
  -11    2   21      1.23      0.00
  -10    2   21     -1.25      0.00
   -9    2   21      0.84      0.00
   -8    2   21     -0.63      0.00
   -7    2   21     -0.61      0.00
   -6    2   21     -0.88      0.00
   -5    2   21      1.89      0.00
   -4    2   21     -1.58      0.00
   -3    2   21     -3.42      0.00
   -2    2   21      0.59      0.00
   -1    2   21      1.25      0.00
    0    2   21      1.05      0.00
    1    2   21      2.66      0.00
    2    2   21      1.29      0.00
    3    2   21      1.03      0.00
    4    2   21     -0.49      0.00
    5    2   21      3.28      0.00
    6    2   21     -1.82      0.00
    7    2   21      2.61      0.00
    8    2   21     -3.43      0.00
    9    2   21      0.78      0.00
   10    2   21     -2.18      0.00
   11    2   21      0.10      0.00
   12    2   21      2.09      0.00
   13    2   21      4.29      0.00
   14    2   21     -2.64      0.00
   15    2   21     -1.36      0.00
   16    2   21      2.04      0.00
   17    2   21      3.87      0.00
   18    2   21     -1.71      0.00
  -25    3   21     -5.13      0.00
  -24    3   21     -4.14      0.00
  -23    3   21      5.65      0.00
  -22    3   21      3.22      0.00
  -21    3   21     -3.13      0.00
  -20    3   21     -0.36      0.00
  -19    3   21     -3.64      0.00
  -18    3   21     -0.34      0.00
  -17    3   21      2.81      0.00
  -16    3   21      1.54      0.00
  -15    3   21     -2.35      0.00
  -14    3   21     -0.41      0.00
  -13    3   21      1.29      0.00
  -12    3   21     -1.67      0.00
  -11    3   21      1.04      0.00
  -10    3   21      0.18      0.00
   -9    3   21      0.07      0.00
   -8    3   21     -1.39      0.00
   -7    3   21     -0.30      0.00
   -6    3   21     -1.03      0.00
   -5    3   21     -1.73      0.00
   -4    3   21     -0.31      0.00
   -3    3   21     -1.71      0.00
   -2    3   21      2.41      0.00
   -1    3   21      1.71      0.00
    0    3   21     -1.27      0.00
    1    3   21      0.54      0.00
    2    3   21     -1.98      0.00
    3    3   21     -0.17      0.00
    4    3   21     -2.24      0.00
    5    3   21      1.81      0.00
    6    3   21     -0.65      0.00
    7    3   21     -0.02      0.00
    8    3   21     -0.35      0.00
    9    3   21     -0.61      0.00
   10    3   21      1.01      0.00
   11    3   21     -1.08      0.00
   12    3   21      1.72      0.00
   13    3   21      2.35      0.00
   14    3   21     -2.13      0.00
   15    3   21     -3.38      0.00
   16    3   21      1.53      0.00
   17    3   21      2.66      0.00
   18    3   21     -3.14      0.00
  -24    4   21     -0.04      0.00
  -23    4   21     -5.05      0.00
  -22    4   21      5.44      0.00
  -21    4   21     -0.87      0.00
  -20    4   21      2.96      0.00
  -19    4   21      0.43      0.00
  -18    4   21     -0.97      0.00
  -17    4   21     -0.91      0.00
  -16    4   21     -1.65      0.00
  -15    4   21      1.87      0.00
  -14    4   21      0.50      0.00
  -13    4   21     -0.36      0.00
  -12    4   21      0.85      0.00
  -11    4   21     -0.61      0.00
  -10    4   21      2.17      0.00
   -9    4   21     -0.76      0.00
   -8    4   21     -0.46      0.00
   -7    4   21      0.97      0.00
   -6    4   21     -0.41      0.00
   -5    4   21     -1.60      0.00
   -4    4   21     -0.99      0.00
   -3    4   21      1.24      0.00
   -2    4   21     -0.74      0.00
   -1    4   21      1.06      0.00
    0    4   21     -2.12      0.00
    1    4   21      0.71      0.00
    2    4   21      2.34      0.00
    3    4   21     -0.02      0.00
    4    4   21     -0.18      0.00
    5    4   21     -1.87      0.00
    6    4   21      1.76      0.00
    7    4   21     -1.70      0.00
    8    4   21      0.17      0.00
    9    4   21     -2.40      0.00
   10    4   21      2.68      0.00
   11    4   21      0.14      0.00
   12    4   21     -1.97      0.00
   13    4   21     -1.75      0.00
   14    4   21      0.99      0.00
   15    4   21      4.00      0.00
   16    4   21     -2.33      0.00
   17    4   21      1.24      0.00
  -22    5   21      1.14      0.00
  -21    5   21      1.15      0.00
  -20    5   21     -1.02      0.00
  -19    5   21     -0.10      0.00
  -18    5   21     -1.59      0.00
  -17    5   21     -0.02      0.00
  -16    5   21      0.43      0.00
  -15    5   21      0.78      0.00
  -14    5   21     -1.32      0.00
  -13    5   21      0.66      0.00
  -12    5   21      2.69      0.00
  -11    5   21      2.89      0.00
  -10    5   21     -0.55      0.00
   -9    5   21     -1.24      0.00
   -8    5   21     -2.34      0.00
   -7    5   21      1.85      0.00
   -6    5   21     -1.16      0.00
   -5    5   21     -0.83      0.00
   -4    5   21     -2.31      0.00
   -3    5   21     -1.75      0.00
   -2    5   21     -0.78      0.00
   -1    5   21      0.68      0.00
    0    5   21      0.63      0.00
    1    5   21      0.81      0.00
    2    5   21      0.06      0.00
    3    5   21     -2.31      0.00
    4    5   21     -1.01      0.00
    5    5   21      0.07      0.00
    6    5   21      1.85      0.00
    7    5   21      0.78      0.00
    8    5   21     -1.37      0.00
    9    5   21      1.03      0.00
   10    5   21     -0.08      0.00
   11    5   21      1.91      0.00
   12    5   21     -0.31      0.00
   13    5   21     -5.42      0.00
   14    5   21      0.92      0.00
   15    5   21     -0.40      0.00
  -20    6   21     -1.23      0.00
  -19    6   21      2.48      0.00
  -18    6   21      3.15      0.00
  -17    6   21      0.69      0.00
  -16    6   21      2.59      0.00
  -15    6   21     -2.01      0.00
  -14    6   21     -0.91      0.00
  -13    6   21     -0.30      0.00
  -12    6   21     -0.57      0.00
  -11    6   21     -4.71      0.00
  -10    6   21      0.39      0.00
   -9    6   21      1.74      0.00
   -8    6   21     -0.79      0.00
   -7    6   21      0.08      0.00
   -6    6   21      0.66      0.00
   -5    6   21     -0.59      0.00
   -4    6   21      2.97      0.00
   -3    6   21     -2.72      0.00
   -2    6   21      0.26      0.00
   -1    6   21     -0.83      0.00
    0    6   21      1.17      0.00
    1    6   21     -1.03      0.00
    2    6   21      0.44      0.00
    3    6   21     -0.74      0.00
    4    6   21      0.10      0.00
    5    6   21      0.36      0.00
    6    6   21     -3.38      0.00
    7    6   21     -2.73      0.00
    8    6   21      0.52      0.00
    9    6   21      4.11      0.00
   10    6   21      1.25      0.00
   11    6   21     -4.59      0.00
   12    6   21     -2.20      0.00
   13    6   21      0.56      0.00
  -17    7   21     -1.09      0.00
  -16    7   21     -0.55      0.00
  -15    7   21     -0.70      0.00
  -14    7   21      4.41      0.00
  -13    7   21      0.33      0.00
  -12    7   21     -1.18      0.00
  -11    7   21      2.01      0.00
  -10    7   21      3.95      0.00
   -9    7   21      2.24      0.00
   -8    7   21     -2.62      0.00
   -7    7   21      0.37      0.00
   -6    7   21     -0.65      0.00
   -5    7   21     -1.41      0.00
   -4    7   21     -0.76      0.00
   -3    7   21      0.42      0.00
   -2    7   21     -0.03      0.00
   -1    7   21      1.96      0.00
    0    7   21      2.72      0.00
    1    7   21     -1.12      0.00
    2    7   21     -2.03      0.00
    3    7   21     -0.91      0.00
    4    7   21      1.86      0.00
    5    7   21      2.40      0.00
    6    7   21     -1.46      0.00
    7    7   21     -0.16      0.00
    8    7   21     -3.41      0.00
    9    7   21     -0.41      0.00
   10    7   21      2.43      0.00
  -13    8   21      0.80      0.00
  -12    8   21     -1.77      0.00
  -11    8   21     -1.91      0.00
  -10    8   21      0.19      0.00
   -9    8   21      2.76      0.00
   -8    8   21     -0.09      0.00
   -7    8   21     -0.69      0.00
   -6    8   21      2.65      0.00
   -5    8   21     -0.42      0.00
   -4    8   21      1.66      0.00
   -3    8   21      4.43      0.00
   -2    8   21     -0.59      0.00
   -1    8   21     -1.81      0.00
    0    8   21     -0.13      0.00
    1    8   21     -1.12      0.00
    2    8   21     -0.30      0.00
    3    8   21     -0.82      0.00
    4    8   21     -0.24      0.00
    5    8   21     -0.49      0.00
    6    8   21      3.84      0.00
  -26    0   22      3.51      0.00
  -24    0   22      2.82      0.00
  -22    0   22     -2.87      0.00
  -20    0   22     -0.60      0.00
  -18    0   22     -3.21      0.00
  -16    0   22     -1.22      0.00
  -14    0   22      2.98      0.00
  -12    0   22     -2.61      0.00
  -10    0   22     -3.18      0.00
   -8    0   22     -1.92      0.00
   -6    0   22     -0.41      0.00
   -4    0   22      1.95      0.00
   -2    0   22     -2.22      0.00
    0    0   22     -3.71      0.00
    2    0   22     -1.07      0.00
    4    0   22     -3.31      0.00
    6    0   22      0.70      0.00
    8    0   22     -3.56      0.00
   10    0   22     -2.26      0.00
   12    0   22     -0.30      0.00
   14    0   22     -1.32      0.00
   16    0   22     -2.96      0.00
   18    0   22      1.73      0.00
  -26    1   22     -0.49      0.00
  -25    1   22      0.38      0.00
  -24    1   22     -2.02      0.00
  -23    1   22      1.07      0.00
  -22    1   22      1.52      0.00
  -21    1   22     -0.43      0.00
  -20    1   22     -1.24      0.00
  -19    1   22     -1.27      0.00
  -18    1   22     -0.35      0.00
  -17    1   22      2.20      0.00
  -16    1   22      1.85      0.00
  -15    1   22      4.37      0.00
  -14    1   22      0.93      0.00
  -13    1   22     -0.92      0.00
  -12    1   22      0.04      0.00
  -11    1   22     -2.33      0.00
  -10    1   22      1.65      0.00
   -9    1   22     -3.09      0.00
   -8    1   22     -0.98      0.00
   -7    1   22     -1.43      0.00
   -6    1   22      2.52      0.00
   -5    1   22     -1.63      0.00
   -4    1   22     -1.22      0.00
   -3    1   22     -0.93      0.00
   -2    1   22     -0.05      0.00
   -1    1   22      0.15      0.00
    0    1   22     -0.06      0.00
    1    1   22     -1.91      0.00
    2    1   22      1.42      0.00
    3    1   22     -3.00      0.00
    4    1   22     -1.12      0.00
    5    1   22     -3.54      0.00
    6    1   22      2.88      0.00
    7    1   22     -2.60      0.00
    8    1   22      1.16      0.00
    9    1   22      0.77      0.00
   10    1   22      2.76      0.00
   11    1   22      3.50      0.00
   12    1   22     -0.23      0.00
   13    1   22     -0.13      0.00
   14    1   22      1.95      0.00
   15    1   22     -3.84      0.00
   16    1   22      4.01      0.00
   17    1   22      5.26      0.00
   18    1   22      5.07      0.00
  -25    2   22     -1.43      0.00
  -24    2   22      0.34      0.00
  -23    2   22     -0.70      0.00
  -22    2   22      7.63      0.00
  -21    2   22     -1.20      0.00
  -20    2   22     -5.27      0.00
  -19    2   22      0.31      0.00
  -18    2   22     -0.63      0.00
  -17    2   22      2.71      0.00
  -16    2   22      0.42      0.00
  -15    2   22     -0.15      0.00
  -14    2   22      2.71      0.00
  -13    2   22     -1.29      0.00
  -12    2   22     -4.49      0.00
  -11    2   22     -2.15      0.00
  -10    2   22     -1.69      0.00
   -9    2   22      0.41      0.00
   -8    2   22     -0.71      0.00
   -7    2   22     -0.19      0.00
   -6    2   22      2.18      0.00
   -5    2   22     -0.36      0.00
   -4    2   22     -2.30      0.00
   -3    2   22     -0.23      0.00
   -2    2   22      1.17      0.00
   -1    2   22      0.76      0.00
    0    2   22     -1.98      0.00
    1    2   22      0.40      0.00
    2    2   22     -2.63      0.00
    3    2   22     -1.69      0.00
    4    2   22     -1.53      0.00
    5    2   22     -2.16      0.00
    6    2   22      0.71      0.00
    7    2   22     -3.61      0.00
    8    2   22      1.18      0.00
    9    2   22     -0.62      0.00
   10    2   22     -0.18      0.00
   11    2   22      3.09      0.00
   12    2   22      1.49      0.00
   13    2   22     -0.22      0.00
   14    2   22     -4.20      0.00
   15    2   22      1.90      0.00
   16    2   22      2.40      0.00
   17    2   22      1.27      0.00
   18    2   22      1.70      0.00
  -25    3   22     -1.79      0.00
  -24    3   22      8.79      0.00
  -23    3   22      3.99      0.00
  -22    3   22     -3.42      0.00
  -21    3   22     -0.29      0.00
  -20    3   22     -0.13      0.00
  -19    3   22      0.64      0.00
  -18    3   22      3.13      0.00
  -17    3   22      3.27      0.00
  -16    3   22     -3.49      0.00
  -15    3   22     -1.79      0.00
  -14    3   22      0.85      0.00
  -13    3   22     -2.37      0.00
  -12    3   22     -0.70      0.00
  -11    3   22      0.31      0.00
  -10    3   22      0.38      0.00
   -9    3   22     -0.76      0.00
   -8    3   22     -0.05      0.00
   -7    3   22      0.38      0.00
   -6    3   22      0.09      0.00
   -5    3   22      1.40      0.00
   -4    3   22     -0.62      0.00
   -3    3   22      1.18      0.00
   -2    3   22      2.61      0.00
   -1    3   22     -2.28      0.00
    0    3   22      0.33      0.00
    1    3   22     -3.01      0.00
    2    3   22     -0.49      0.00
    3    3   22     -0.83      0.00
    4    3   22     -0.09      0.00
    5    3   22      0.95      0.00
    6    3   22     -3.66      0.00
    7    3   22      1.55      0.00
    8    3   22     -2.40      0.00
    9    3   22      2.84      0.00
   10    3   22      0.28      0.00
   11    3   22      2.13      0.00
   12    3   22      2.33      0.00
   13    3   22     -3.28      0.00
   14    3   22     -1.12      0.00
   15    3   22      2.47      0.00
   16    3   22      2.49      0.00
   17    3   22     -3.92      0.00
  -23    4   22      6.58      0.00
  -22    4   22      0.34      0.00
  -21    4   22      0.83      0.00
  -20    4   22      0.66      0.00
  -19    4   22     -2.91      0.00
  -18    4   22      1.09      0.00
  -17    4   22     -0.73      0.00
  -16    4   22      2.10      0.00
  -15    4   22      1.26      0.00
  -14    4   22     -2.53      0.00
  -13    4   22     -0.03      0.00
  -12    4   22     -0.68      0.00
  -11    4   22      1.16      0.00
  -10    4   22      0.17      0.00
   -9    4   22      0.09      0.00
   -8    4   22      2.19      0.00
   -7    4   22     -0.43      0.00
   -6    4   22      0.81      0.00
   -5    4   22      1.87      0.00
   -4    4   22      3.44      0.00
   -3    4   22     -0.72      0.00
   -2    4   22      1.56      0.00
   -1    4   22     -1.50      0.00
    0    4   22      0.46      0.00
    1    4   22      3.22      0.00
    2    4   22     -0.81      0.00
    3    4   22      1.47      0.00
    4    4   22     -0.35      0.00
    5    4   22      0.47      0.00
    6    4   22     -0.74      0.00
    7    4   22     -1.01      0.00
    8    4   22      0.08      0.00
    9    4   22      1.04      0.00
   10    4   22      1.53      0.00
   11    4   22     -0.51      0.00
   12    4   22     -1.47      0.00
   13    4   22      3.21      0.00
   14    4   22      1.58      0.00
   15    4   22     -1.04      0.00
   16    4   22     -1.46      0.00
  -22    5   22      1.95      0.00
  -21    5   22     -1.83      0.00
  -20    5   22      1.25      0.00
  -19    5   22     -1.25      0.00
  -18    5   22     -1.39      0.00
  -17    5   22      2.73      0.00
  -16    5   22     -0.55      0.00
  -15    5   22      1.56      0.00
  -14    5   22     -0.70      0.00
  -13    5   22      2.96      0.00
  -12    5   22      2.57      0.00
  -11    5   22     -1.42      0.00
  -10    5   22     -1.94      0.00
   -9    5   22     -1.38      0.00
   -8    5   22      1.41      0.00
   -7    5   22      0.66      0.00
   -6    5   22     -1.47      0.00
   -5    5   22      0.93      0.00
   -4    5   22     -2.78      0.00
   -3    5   22      2.19      0.00
   -2    5   22     -2.31      0.00
   -1    5   22      2.60      0.00
    0    5   22     -1.25      0.00
    1    5   22      0.93      0.00
    2    5   22     -2.68      0.00
    3    5   22     -0.63      0.00
    4    5   22      1.31      0.00
    5    5   22      2.62      0.00
    6    5   22      1.92      0.00
    7    5   22     -1.12      0.00
    8    5   22      1.24      0.00
    9    5   22      1.30      0.00
   10    5   22      2.61      0.00
   11    5   22      1.23      0.00
   12    5   22     -5.55      0.00
   13    5   22      0.05      0.00
   14    5   22      3.37      0.00
  -20    6   22      2.70      0.00
  -19    6   22      1.38      0.00
  -18    6   22      0.16      0.00
  -17    6   22      0.40      0.00
  -16    6   22     -1.05      0.00
  -15    6   22     -3.83      0.00
  -14    6   22      0.81      0.00
  -13    6   22      0.96      0.00
  -12    6   22     -1.02      0.00
  -11    6   22      0.49      0.00
  -10    6   22      2.67      0.00
   -9    6   22      2.79      0.00
   -8    6   22     -0.11      0.00
   -7    6   22      1.45      0.00
   -6    6   22     -0.76      0.00
   -5    6   22      0.64      0.00
   -4    6   22     -2.08      0.00
   -3    6   22     -3.32      0.00
   -2    6   22      0.73      0.00
   -1    6   22      0.16      0.00
    0    6   22     -1.32      0.00
    1    6   22      0.11      0.00
    2    6   22     -0.21      0.00
    3    6   22      0.61      0.00
    4    6   22      2.44      0.00
    5    6   22     -1.04      0.00
    6    6   22     -0.62      0.00
    7    6   22      1.28      0.00
    8    6   22      5.22      0.00
    9    6   22      0.89      0.00
   10    6   22     -2.41      0.00
   11    6   22     -1.01      0.00
   12    6   22      1.92      0.00
  -17    7   22      0.94      0.00
  -16    7   22     -0.68      0.00
  -15    7   22      4.89      0.00
  -14    7   22      1.73      0.00
  -13    7   22     -2.92      0.00
  -12    7   22      3.46      0.00
  -11    7   22      1.37      0.00
  -10    7   22      0.75      0.00
   -9    7   22     -3.60      0.00
   -8    7   22     -2.10      0.00
   -7    7   22     -2.80      0.00
   -6    7   22     -2.75      0.00
   -5    7   22     -0.35      0.00
   -4    7   22     -1.08      0.00
   -3    7   22     -0.17      0.00
   -2    7   22      1.44      0.00
   -1    7   22      2.53      0.00
    0    7   22     -0.50      0.00
    1    7   22     -2.17      0.00
    2    7   22      0.37      0.00
    3    7   22      1.75      0.00
    4    7   22      0.92      0.00
    5    7   22     -0.50      0.00
    6    7   22     -2.28      0.00
    7    7   22      0.94      0.00
    8    7   22     -2.14      0.00
    9    7   22      3.40      0.00
  -12    8   22     -1.37      0.00
  -11    8   22      0.41      0.00
  -10    8   22      1.23      0.00
   -9    8   22     -0.23      0.00
   -8    8   22     -3.71      0.00
   -7    8   22     -0.15      0.00
   -6    8   22     -1.47      0.00
   -5    8   22     -1.40      0.00
   -4    8   22      3.02      0.00
   -3    8   22     -0.71      0.00
   -2    8   22     -0.91      0.00
   -1    8   22     -0.68      0.00
    0    8   22     -1.98      0.00
    1    8   22      1.04      0.00
    2    8   22      1.43      0.00
    3    8   22      0.81      0.00
    4    8   22      0.54      0.00
    5    8   22      2.44      0.00
  -25    0   23     -0.33      0.00
  -23    0   23     -3.08      0.00
  -21    0   23      4.54      0.00
  -19    0   23      1.35      0.00
  -17    0   23      2.33      0.00
  -15    0   23      3.32      0.00
  -13    0   23     -1.01      0.00
  -11    0   23      0.96      0.00
   -9    0   23      2.70      0.00
   -7    0   23      2.98      0.00
   -5    0   23      2.16      0.00
   -3    0   23      1.01      0.00
   -1    0   23      2.86      0.00
    1    0   23      5.96      0.00
    3    0   23      4.27      0.00
    5    0   23      3.88      0.00
    7    0   23     -3.72      0.00
    9    0   23     -3.13      0.00
   11    0   23      3.21      0.00
   13    0   23      1.41      0.00
   15    0   23     -2.20      0.00
   17    0   23      2.05      0.00
  -26    1   23     -1.58      0.00
  -25    1   23     -2.03      0.00
  -24    1   23     -1.57      0.00
  -23    1   23      1.05      0.00
  -22    1   23      0.97      0.00
  -21    1   23     -0.55      0.00
  -20    1   23      0.73      0.00
  -19    1   23      0.46      0.00
  -18    1   23      2.71      0.00
  -17    1   23      0.84      0.00
  -16    1   23      1.56      0.00
  -15    1   23      0.12      0.00
  -14    1   23     -2.13      0.00
  -13    1   23     -0.46      0.00
  -12    1   23      0.57      0.00
  -11    1   23      0.34      0.00
  -10    1   23      0.78      0.00
   -9    1   23     -2.14      0.00
   -8    1   23      1.56      0.00
   -7    1   23     -0.18      0.00
   -6    1   23      1.76      0.00
   -5    1   23     -1.00      0.00
   -4    1   23      0.36      0.00
   -3    1   23      2.16      0.00
   -2    1   23      2.77      0.00
   -1    1   23     -1.73      0.00
    0    1   23      2.93      0.00
    1    1   23     -1.13      0.00
    2    1   23      2.82      0.00
    3    1   23     -1.86      0.00
    4    1   23      0.95      0.00
    5    1   23      2.55      0.00
    6    1   23      0.06      0.00
    7    1   23     -0.55      0.00
    8    1   23     -0.21      0.00
    9    1   23      2.14      0.00
   10    1   23      1.18      0.00
   11    1   23     -0.35      0.00
   12    1   23     -0.86      0.00
   13    1   23      2.82      0.00
   14    1   23     -2.88      0.00
   15    1   23      4.15      0.00
   16    1   23      3.58      0.00
   17    1   23      2.95      0.00
   18    1   23     -0.99      0.00
  -25    2   23      1.55      0.00
  -24    2   23      0.16      0.00
  -23    2   23      9.19      0.00
  -22    2   23     -0.83      0.00
  -21    2   23     -4.32      0.00
  -20    2   23      0.41      0.00
  -19    2   23      0.32      0.00
  -18    2   23      0.75      0.00
  -17    2   23     -1.66      0.00
  -16    2   23     -1.19      0.00
  -15    2   23      0.87      0.00
  -14    2   23     -2.53      0.00
  -13    2   23     -3.34      0.00
  -12    2   23     -0.80      0.00
  -11    2   23      1.99      0.00
  -10    2   23      0.96      0.00
   -9    2   23      1.23      0.00
   -8    2   23     -0.81      0.00
   -7    2   23      2.40      0.00
   -6    2   23      0.05      0.00
   -5    2   23     -1.19      0.00
   -4    2   23     -0.54      0.00
   -3    2   23      0.85      0.00
   -2    2   23      0.77      0.00
   -1    2   23     -0.79      0.00
    0    2   23     -0.04      0.00
    1    2   23      2.11      0.00
    2    2   23     -1.26      0.00
    3    2   23      1.42      0.00
    4    2   23     -0.46      0.00
    5    2   23      3.32      0.00
    6    2   23     -0.84      0.00
    7    2   23     -0.70      0.00
    8    2   23      2.13      0.00
    9    2   23     -3.14      0.00
   10    2   23      2.90      0.00
   11    2   23      1.10      0.00
   12    2   23     -0.07      0.00
   13    2   23     -3.37      0.00
   14    2   23     -1.08      0.00
   15    2   23      2.12      0.00
   16    2   23      0.31      0.00
   17    2   23     -1.70      0.00
  -24    3   23      2.77      0.00
  -23    3   23     -4.26      0.00
  -22    3   23      0.50      0.00
  -21    3   23      0.12      0.00
  -20    3   23      2.13      0.00
  -19    3   23     -0.45      0.00
  -18    3   23      0.74      0.00
  -17    3   23     -4.15      0.00
  -16    3   23     -4.26      0.00
  -15    3   23      1.78      0.00
  -14    3   23     -0.49      0.00
  -13    3   23     -0.31      0.00
  -12    3   23      2.89      0.00
  -11    3   23      1.52      0.00
  -10    3   23      1.08      0.00
   -9    3   23     -1.82      0.00
   -8    3   23      1.47      0.00
   -7    3   23     -0.27      0.00
   -6    3   23      1.01      0.00
   -5    3   23     -0.54      0.00
   -4    3   23     -1.10      0.00
   -3    3   23      3.12      0.00
   -2    3   23     -2.15      0.00
   -1    3   23      0.75      0.00
    0    3   23     -0.71      0.00
    1    3   23     -0.08      0.00
    2    3   23      2.08      0.00
    3    3   23     -0.97      0.00
    4    3   23      2.64      0.00
    5    3   23     -1.84      0.00
    6    3   23      1.44      0.00
    7    3   23      1.30      0.00
    8    3   23      1.32      0.00
    9    3   23      3.06      0.00
   10    3   23      1.03      0.00
   11    3   23     -0.24      0.00
   12    3   23     -1.51      0.00
   13    3   23     -2.18      0.00
   14    3   23      3.11      0.00
   15    3   23     -0.61      0.00
   16    3   23     -3.62      0.00
  -23    4   23      1.66      0.00
  -22    4   23     -3.51      0.00
  -21    4   23      1.58      0.00
  -20    4   23     -5.32      0.00
  -19    4   23      2.20      0.00
  -18    4   23      0.15      0.00
  -17    4   23     -0.31      0.00
  -16    4   23      1.64      0.00
  -15    4   23     -3.45      0.00
  -14    4   23      0.85      0.00
  -13    4   23      0.41      0.00
  -12    4   23      1.46      0.00
  -11    4   23     -0.61      0.00
  -10    4   23      0.30      0.00
   -9    4   23      0.00      0.00
   -8    4   23     -1.09      0.00
   -7    4   23     -1.17      0.00
   -6    4   23      2.27      0.00
   -5    4   23     -0.49      0.00
   -4    4   23     -0.35      0.00
   -3    4   23     -2.64      0.00
   -2    4   23      0.90      0.00
   -1    4   23     -1.93      0.00
    0    4   23      3.42      0.00
    1    4   23     -1.06      0.00
    2    4   23      0.05      0.00
    3    4   23      1.20      0.00
    4    4   23     -1.83      0.00
    5    4   23     -0.96      0.00
    6    4   23      0.84      0.00
    7    4   23     -0.04      0.00
    8    4   23      1.44      0.00
    9    4   23      0.20      0.00
   10    4   23     -0.86      0.00
   11    4   23     -0.11      0.00
   12    4   23     -0.05      0.00
   13    4   23      1.45      0.00
   14    4   23     -3.84      0.00
   15    4   23     -2.18      0.00
  -21    5   23      2.85      0.00
  -20    5   23     -1.91      0.00
  -19    5   23     -2.18      0.00
  -18    5   23      1.51      0.00
  -17    5   23      0.36      0.00
  -16    5   23      0.49      0.00
  -15    5   23      0.93      0.00
  -14    5   23      0.53      0.00
  -13    5   23      4.70      0.00
  -12    5   23     -2.61      0.00
  -11    5   23     -2.02      0.00
  -10    5   23     -1.43      0.00
   -9    5   23     -0.03      0.00
   -8    5   23     -0.48      0.00
   -7    5   23     -3.36      0.00
   -6    5   23     -0.53      0.00
   -5    5   23     -3.00      0.00
   -4    5   23     -1.67      0.00
   -3    5   23     -1.55      0.00
   -2    5   23      0.24      0.00
   -1    5   23      1.26      0.00
    0    5   23     -0.64      0.00
    1    5   23     -1.44      0.00
    2    5   23     -1.34      0.00
    3    5   23      0.63      0.00
    4    5   23      0.67      0.00
    5    5   23      1.36      0.00
    6    5   23     -2.97      0.00
    7    5   23      1.33      0.00
    8    5   23     -1.37      0.00
    9    5   23     -0.87      0.00
   10    5   23     -0.47      0.00
   11    5   23     -7.28      0.00
   12    5   23     -0.79      0.00
   13    5   23      3.94      0.00
   14    5   23      1.03      0.00
  -19    6   23     -1.44      0.00
  -18    6   23      1.50      0.00
  -17    6   23     -1.13      0.00
  -16    6   23     -4.40      0.00
  -15    6   23      0.66      0.00
  -14    6   23      1.65      0.00
  -13    6   23      0.23      0.00
  -12    6   23     -0.54      0.00
  -11    6   23      0.10      0.00
  -10    6   23      3.96      0.00
   -9    6   23     -0.87      0.00
   -8    6   23     -0.33      0.00
   -7    6   23     -0.11      0.00
   -6    6   23     -1.75      0.00
   -5    6   23     -0.61      0.00
   -4    6   23     -2.45      0.00
   -3    6   23      1.68      0.00
   -2    6   23      2.98      0.00
   -1    6   23      0.37      0.00
    0    6   23     -0.17      0.00
    1    6   23      1.73      0.00
    2    6   23     -0.75      0.00
    3    6   23      2.51      0.00
    4    6   23     -1.10      0.00
    5    6   23     -2.80      0.00
    6    6   23      1.50      0.00
    7    6   23      1.18      0.00
    8    6   23      1.45      0.00
    9    6   23     -3.94      0.00
   10    6   23     -1.58      0.00
   11    6   23     -1.12      0.00
  -16    7   23      0.18      0.00
  -15    7   23      2.87      0.00
  -14    7   23     -6.13      0.00
  -13    7   23      2.78      0.00
  -12    7   23     -0.98      0.00
  -11    7   23     -2.78      0.00
  -10    7   23     -1.86      0.00
   -9    7   23     -3.33      0.00
   -8    7   23      0.04      0.00
   -7    7   23     -0.80      0.00
   -6    7   23      3.50      0.00
   -5    7   23      0.99      0.00
   -4    7   23      0.74      0.00
   -3    7   23      4.15      0.00
   -2    7   23      3.86      0.00
   -1    7   23      1.70      0.00
    0    7   23     -3.21      0.00
    1    7   23      0.96      0.00
    2    7   23     -0.49      0.00
    3    7   23      0.17      0.00
    4    7   23     -1.88      0.00
    5    7   23     -0.83      0.00
    6    7   23     -0.02      0.00
    7    7   23      0.07      0.00
    8    7   23     -0.56      0.00
  -11    8   23      1.31      0.00
  -10    8   23      0.10      0.00
   -9    8   23     -1.69      0.00
   -8    8   23      0.19      0.00
   -7    8   23      2.14      0.00
   -6    8   23      1.94      0.00
   -5    8   23      4.17      0.00
   -4    8   23      1.06      0.00
   -3    8   23      0.07      0.00
   -2    8   23     -2.00      0.00
   -1    8   23     -2.41      0.00
    0    8   23      1.89      0.00
    1    8   23      3.68      0.00
    2    8   23     -0.28      0.00
    3    8   23     -0.11      0.00
  -24    0   24     -2.48      0.00
  -22    0   24      2.33      0.00
  -20    0   24     -2.88      0.00
  -18    0   24      0.57      0.00
  -16    0   24      1.11      0.00
  -14    0   24     -3.31      0.00
  -12    0   24     -2.82      0.00
  -10    0   24     -1.15      0.00
   -8    0   24     -2.04      0.00
   -6    0   24     -2.75      0.00
   -4    0   24     -0.20      0.00
   -2    0   24     -0.91      0.00
    0    0   24     -3.36      0.00
    2    0   24     -5.77      0.00
    4    0   24     -6.30      0.00
    6    0   24     -6.74      0.00
    8    0   24      3.15      0.00
   10    0   24     11.36      0.00
   12    0   24      2.55      0.00
   14    0   24      0.28      0.00
   16    0   24      5.84      0.00
  -25    1   24     -0.59      0.00
  -24    1   24      0.58      0.00
  -23    1   24      1.42      0.00
  -22    1   24      0.07      0.00
  -21    1   24     -2.77      0.00
  -20    1   24     -0.37      0.00
  -19    1   24     -0.01      0.00
  -18    1   24     -0.93      0.00
  -17    1   24     -0.98      0.00
  -16    1   24     -0.67      0.00
  -15    1   24     -3.11      0.00
  -14    1   24     -1.32      0.00
  -13    1   24     -1.97      0.00
  -12    1   24     -0.78      0.00
  -11    1   24     -1.04      0.00
  -10    1   24     -1.41      0.00
   -9    1   24     -0.44      0.00
   -8    1   24      0.42      0.00
   -7    1   24     -0.31      0.00
   -6    1   24      0.80      0.00
   -5    1   24     -2.52      0.00
   -4    1   24      2.01      0.00
   -3    1   24      0.11      0.00
   -2    1   24     -4.40      0.00
   -1    1   24     -2.23      0.00
    0    1   24     -1.40      0.00
    1    1   24     -3.73      0.00
    2    1   24      0.26      0.00
    3    1   24     -4.44      0.00
    4    1   24      2.26      0.00
    5    1   24     -2.15      0.00
    6    1   24     -1.72      0.00
    7    1   24      1.40      0.00
    8    1   24      1.70      0.00
    9    1   24      3.15      0.00
   10    1   24     -0.87      0.00
   11    1   24     -2.74      0.00
   12    1   24      2.41      0.00
   13    1   24     -4.88      0.00
   14    1   24      0.78      0.00
   15    1   24      2.94      0.00
   16    1   24     -0.36      0.00
   17    1   24      1.30      0.00
  -25    2   24      2.05      0.00
  -24    2   24      7.98      0.00
  -23    2   24      0.39      0.00
  -22    2   24     -5.98      0.00
  -21    2   24      0.65      0.00
  -20    2   24     -1.40      0.00
  -19    2   24      1.22      0.00
  -18    2   24     -1.83      0.00
  -17    2   24      0.26      0.00
  -16    2   24      3.64      0.00
  -15    2   24     -2.85      0.00
  -14    2   24     -1.98      0.00
  -13    2   24      0.54      0.00
  -12    2   24      0.03      0.00
  -11    2   24      1.44      0.00
  -10    2   24     -1.33      0.00
   -9    2   24      0.28      0.00
   -8    2   24     -0.83      0.00
   -7    2   24      1.95      0.00
   -6    2   24     -2.85      0.00
   -5    2   24     -0.76      0.00
   -4    2   24     -1.32      0.00
   -3    2   24     -0.11      0.00
   -2    2   24     -1.72      0.00
   -1    2   24     -1.13      0.00
    0    2   24      1.30      0.00
    1    2   24     -1.87      0.00
    2    2   24     -1.08      0.00
    3    2   24     -1.09      0.00
    4    2   24      0.68      0.00
    5    2   24     -0.09      0.00
    6    2   24     -2.84      0.00
    7    2   24      2.62      0.00
    8    2   24     -1.65      0.00
    9    2   24      2.42      0.00
   10    2   24      1.85      0.00
   11    2   24      0.71      0.00
   12    2   24     -5.57      0.00
   13    2   24     -2.54      0.00
   14    2   24      0.77      0.00
   15    2   24      0.02      0.00
   16    2   24     -2.36      0.00
   17    2   24     -4.22      0.00
  -24    3   24     -3.28      0.00
  -23    3   24      0.51      0.00
  -22    3   24     -1.15      0.00
  -21    3   24      1.36      0.00
  -20    3   24     -1.47      0.00
  -19    3   24     -1.89      0.00
  -18    3   24     -0.45      0.00
  -17    3   24     -0.81      0.00
  -16    3   24      2.75      0.00
  -15    3   24      1.51      0.00
  -14    3   24     -0.98      0.00
  -13    3   24      1.98      0.00
  -12    3   24      0.89      0.00
  -11    3   24      0.03      0.00
  -10    3   24     -2.87      0.00
   -9    3   24      0.46      0.00
   -8    3   24      1.77      0.00
   -7    3   24     -0.31      0.00
   -6    3   24      0.05      0.00
   -5    3   24     -0.85      0.00
   -4    3   24      1.09      0.00
   -3    3   24      0.80      0.00
   -2    3   24     -1.30      0.00
   -1    3   24      1.08      0.00
    0    3   24     -1.05      0.00
    1    3   24      0.84      0.00
    2    3   24     -1.47      0.00
    3    3   24      0.55      0.00
    4    3   24      0.17      0.00
    5    3   24      0.03      0.00
    6    3   24      1.45      0.00
    7    3   24      1.33      0.00
    8    3   24      1.54      0.00
    9    3   24      0.18      0.00
   10    3   24     -2.08      0.00
   11    3   24     -4.30      0.00
   12    3   24      0.80      0.00
   13    3   24     -3.18      0.00
   14    3   24      0.88      0.00
   15    3   24     -3.16      0.00
   16    3   24     -0.09      0.00
  -23    4   24     -4.69      0.00
  -22    4   24     -0.27      0.00
  -21    4   24     -3.39      0.00
  -20    4   24      2.33      0.00
  -19    4   24      2.80      0.00
  -18    4   24      0.16      0.00
  -17    4   24      1.11      0.00
  -16    4   24      0.13      0.00
  -15    4   24     -0.79      0.00
  -14    4   24      2.16      0.00
  -13    4   24     -1.24      0.00
  -12    4   24     -0.58      0.00
  -11    4   24     -0.69      0.00
  -10    4   24      0.22      0.00
   -9    4   24     -1.09      0.00
   -8    4   24     -0.14      0.00
   -7    4   24      1.44      0.00
   -6    4   24     -0.03      0.00
   -5    4   24     -1.14      0.00
   -4    4   24     -0.04      0.00
   -3    4   24     -1.35      0.00
   -2    4   24      0.36      0.00
   -1    4   24     -0.26      0.00
    0    4   24      0.12      0.00
    1    4   24     -1.92      0.00
    2    4   24      0.80      0.00
    3    4   24     -1.50      0.00
    4    4   24     -2.40      0.00
    5    4   24      1.83      0.00
    6    4   24      0.27      0.00
    7    4   24     -0.93      0.00
    8    4   24      1.87      0.00
    9    4   24     -0.90      0.00
   10    4   24      1.32      0.00
   11    4   24      1.17      0.00
   12    4   24     -0.42      0.00
   13    4   24     -1.42      0.00
   14    4   24     -2.31      0.00
   15    4   24      1.54      0.00
  -21    5   24     -0.02      0.00
  -20    5   24     -5.54      0.00
  -19    5   24      2.50      0.00
  -18    5   24     -0.18      0.00
  -17    5   24      0.50      0.00
  -16    5   24      1.39      0.00
  -15    5   24     -1.28      0.00
  -14    5   24      4.81      0.00
  -13    5   24     -2.71      0.00
  -12    5   24     -3.16      0.00
  -11    5   24      0.33      0.00
  -10    5   24      0.08      0.00
   -9    5   24      1.26      0.00
   -8    5   24     -1.70      0.00
   -7    5   24      1.17      0.00
   -6    5   24     -0.19      0.00
   -5    5   24     -0.43      0.00
   -4    5   24     -0.11      0.00
   -3    5   24      2.46      0.00
   -2    5   24      1.78      0.00
   -1    5   24     -0.51      0.00
    0    5   24     -0.18      0.00
    1    5   24     -1.85      0.00
    2    5   24      2.60      0.00
    3    5   24     -0.29      0.00
    4    5   24      3.11      0.00
    5    5   24     -0.59      0.00
    6    5   24      0.60      0.00
    7    5   24      1.21      0.00
    8    5   24     -5.31      0.00
    9    5   24      2.92      0.00
   10    5   24     -3.03      0.00
   11    5   24     -0.43      0.00
   12    5   24      7.15      0.00
   13    5   24     -0.15      0.00
  -19    6   24     -2.10      0.00
  -18    6   24      1.38      0.00
  -17    6   24     -6.87      0.00
  -16    6   24      2.11      0.00
  -15    6   24      0.80      0.00
  -14    6   24      1.10      0.00
  -13    6   24     -1.36      0.00
  -12    6   24     -2.05      0.00
  -11    6   24      3.29      0.00
  -10    6   24     -0.16      0.00
   -9    6   24     -3.14      0.00
   -8    6   24      0.00      0.00
   -7    6   24     -2.66      0.00
   -6    6   24      0.52      0.00
   -5    6   24     -0.05      0.00
   -4    6   24      2.33      0.00
   -3    6   24      3.22      0.00
   -2    6   24      2.52      0.00
   -1    6   24     -2.44      0.00
    0    6   24      2.25      0.00
    1    6   24     -0.54      0.00
    2    6   24      2.01      0.00
    3    6   24      0.15      0.00
    4    6   24     -2.08      0.00
    5    6   24      1.06      0.00
    6    6   24      2.82      0.00
    7    6   24     -0.21      0.00
    8    6   24      0.01      0.00
    9    6   24     -2.02      0.00
   10    6   24     -0.99      0.00
   11    6   24      0.10      0.00
  -16    7   24     -0.26      0.00
  -15    7   24     -2.61      0.00
  -14    7   24      1.09      0.00
  -13    7   24      0.56      0.00
  -12    7   24     -4.88      0.00
  -11    7   24      0.29      0.00
  -10    7   24     -1.97      0.00
   -9    7   24     -0.73      0.00
   -8    7   24      0.07      0.00
   -7    7   24     -0.01      0.00
   -6    7   24     -0.22      0.00
   -5    7   24     -1.98      0.00
   -4    7   24      2.70      0.00
   -3    7   24      3.35      0.00
   -2    7   24      0.37      0.00
   -1    7   24     -5.80      0.00
    0    7   24     -1.01      0.00
    1    7   24     -0.09      0.00
    2    7   24      0.13      0.00
    3    7   24      0.43      0.00
    4    7   24      0.31      0.00
    5    7   24      0.99      0.00
    6    7   24     -0.37      0.00
    7    7   24     -0.02      0.00
  -10    8   24     -1.74      0.00
   -9    8   24     -0.18      0.00
   -8    8   24      1.06      0.00
   -7    8   24      1.64      0.00
   -6    8   24      1.04      0.00
   -5    8   24     -2.58      0.00
   -4    8   24     -1.83      0.00
   -3    8   24     -2.75      0.00
   -2    8   24     -4.24      0.00
   -1    8   24      3.94      0.00
    0    8   24      2.51      0.00
    1    8   24     -1.22      0.00
    2    8   24     -2.82      0.00
  -25    0   25     -2.83      0.00
  -23    0   25      2.19      0.00
  -21    0   25     -1.04      0.00
  -19    0   25      0.93      0.00
  -17    0   25     -1.59      0.00
  -15    0   25     -2.36      0.00
  -13    0   25      0.59      0.00
  -11    0   25      2.64      0.00
   -9    0   25      0.47      0.00
   -7    0   25      1.15      0.00
   -5    0   25      3.56      0.00
   -3    0   25      0.56      0.00
   -1    0   25     -0.07      0.00
    1    0   25      1.72      0.00
    3    0   25      0.88      0.00
    5    0   25      0.21      0.00
    7    0   25      5.35      0.00
    9    0   25      6.49      0.00
   11    0   25     -4.34      0.00
   13    0   25      0.16      0.00
   15    0   25      1.69      0.00
   17    0   25     -0.24      0.00
  -25    1   25      1.15      0.00
  -24    1   25      1.84      0.00
  -23    1   25      1.99      0.00
  -22    1   25     -0.50      0.00
  -21    1   25     -0.37      0.00
  -20    1   25      2.91      0.00
  -19    1   25     -1.63      0.00
  -18    1   25     -1.80      0.00
  -17    1   25     -0.62      0.00
  -16    1   25     -2.47      0.00
  -15    1   25     -0.68      0.00
  -14    1   25      0.59      0.00
  -13    1   25      0.37      0.00
  -12    1   25      3.85      0.00
  -11    1   25      0.82      0.00
  -10    1   25      2.23      0.00
   -9    1   25      0.83      0.00
   -8    1   25      2.12      0.00
   -7    1   25      0.45      0.00
   -6    1   25      0.57      0.00
   -5    1   25     -0.29      0.00
   -4    1   25      2.58      0.00
   -3    1   25     -4.81      0.00
   -2    1   25      0.05      0.00
   -1    1   25      1.39      0.00
    0    1   25      0.76      0.00
    1    1   25      4.16      0.00
    2    1   25      1.50      0.00
    3    1   25      2.55      0.00
    4    1   25      3.23      0.00
    5    1   25     -1.93      0.00
    6    1   25      3.94      0.00
    7    1   25      1.02      0.00
    8    1   25     -0.14      0.00
    9    1   25     -3.23      0.00
   10    1   25     -5.49      0.00
   11    1   25     -0.55      0.00
   12    1   25     -2.24      0.00
   13    1   25     -3.36      0.00
   14    1   25      4.37      0.00
   15    1   25     -1.77      0.00
   16    1   25     -0.06      0.00
   17    1   25     -4.99      0.00
  -24    2   25      1.07      0.00
  -23    2   25     -5.33      0.00
  -22    2   25      0.42      0.00
  -21    2   25     -1.73      0.00
  -20    2   25      2.00      0.00
  -19    2   25     -2.41      0.00
  -18    2   25     -0.50      0.00
  -17    2   25      4.16      0.00
  -16    2   25     -2.78      0.00
  -15    2   25     -1.95      0.00
  -14    2   25      2.65      0.00
  -13    2   25      0.68      0.00
  -12    2   25      2.00      0.00
  -11    2   25      1.26      0.00
  -10    2   25      0.13      0.00
   -9    2   25      0.78      0.00
   -8    2   25      0.81      0.00
   -7    2   25      0.73      0.00
   -6    2   25     -2.48      0.00
   -5    2   25      1.07      0.00
   -4    2   25      0.43      0.00
   -3    2   25      1.20      0.00
   -2    2   25      0.35      0.00
   -1    2   25      4.95      0.00
    0    2   25     -0.43      0.00
    1    2   25      2.18      0.00
    2    2   25     -0.36      0.00
    3    2   25      2.18      0.00
    4    2   25      1.19      0.00
    5    2   25     -1.27      0.00
    6    2   25      2.91      0.00
    7    2   25     -1.11      0.00
    8    2   25      1.43      0.00
    9    2   25      0.67      0.00
   10    2   25     -1.09      0.00
   11    2   25     -2.84      0.00
   12    2   25     -5.36      0.00
   13    2   25      5.08      0.00
   14    2   25     -1.16      0.00
   15    2   25     -0.35      0.00
   16    2   25     -1.72      0.00
  -24    3   25      1.83      0.00
  -23    3   25     -3.98      0.00
  -22    3   25      2.36      0.00
  -21    3   25     -1.74      0.00
  -20    3   25     -4.14      0.00
  -19    3   25      1.85      0.00
  -18    3   25     -0.55      0.00
  -17    3   25      2.98      0.00
  -16    3   25     -3.03      0.00
  -15    3   25      1.15      0.00
  -14    3   25      0.89      0.00
  -13    3   25      2.36      0.00
  -12    3   25      0.05      0.00
  -11    3   25     -1.41      0.00
  -10    3   25     -0.67      0.00
   -9    3   25      3.21      0.00
   -8    3   25     -0.89      0.00
   -7    3   25     -0.65      0.00
   -6    3   25     -0.27      0.00
   -5    3   25      0.26      0.00
   -4    3   25      1.54      0.00
   -3    3   25      0.02      0.00
   -2    3   25      0.49      0.00
   -1    3   25      0.30      0.00
    0    3   25      0.17      0.00
    1    3   25     -0.62      0.00
    2    3   25      1.17      0.00
    3    3   25      1.80      0.00
    4    3   25      1.32      0.00
    5    3   25      2.02      0.00
    6    3   25      0.30      0.00
    7    3   25      1.17      0.00
    8    3   25     -2.77      0.00
    9    3   25     -2.68      0.00
   10    3   25     -3.60      0.00
   11    3   25      0.76      0.00
   12    3   25     -0.26      0.00
   13    3   25     -0.92      0.00
   14    3   25      3.80      0.00
   15    3   25     -0.65      0.00
  -22    4   25     -1.57      0.00
  -21    4   25      3.00      0.00
  -20    4   25      2.41      0.00
  -19    4   25     -1.77      0.00
  -18    4   25     -0.51      0.00
  -17    4   25     -1.33      0.00
  -16    4   25     -1.44      0.00
  -15    4   25      0.35      0.00
  -14    4   25     -0.29      0.00
  -13    4   25      0.18      0.00
  -12    4   25      1.42      0.00
  -11    4   25      0.89      0.00
  -10    4   25     -0.68      0.00
   -9    4   25      0.49      0.00
   -8    4   25     -0.79      0.00
   -7    4   25     -0.49      0.00
   -6    4   25     -1.67      0.00
   -5    4   25     -0.22      0.00
   -4    4   25     -1.94      0.00
   -3    4   25     -1.38      0.00
   -2    4   25      0.33      0.00
   -1    4   25     -0.47      0.00
    0    4   25     -0.57      0.00
    1    4   25      0.48      0.00
    2    4   25      0.26      0.00
    3    4   25     -1.80      0.00
    4    4   25      1.98      0.00
    5    4   25      0.19      0.00
    6    4   25     -1.02      0.00
    7    4   25      0.16      0.00
    8    4   25      0.39      0.00
    9    4   25     -1.87      0.00
   10    4   25      0.17      0.00
   11    4   25     -0.69      0.00
   12    4   25     -2.95      0.00
   13    4   25     -0.18      0.00
   14    4   25      0.73      0.00
  -21    5   25     -5.20      0.00
  -20    5   25      1.73      0.00
  -19    5   25      2.02      0.00
  -18    5   25     -0.63      0.00
  -17    5   25      3.34      0.00
  -16    5   25     -2.62      0.00
  -15    5   25      4.37      0.00
  -14    5   25     -2.93      0.00
  -13    5   25     -4.10      0.00
  -12    5   25      0.10      0.00
  -11    5   25      0.23      0.00
  -10    5   25      0.23      0.00
   -9    5   25     -0.74      0.00
   -8    5   25      0.16      0.00
   -7    5   25      0.97      0.00
   -6    5   25     -0.60      0.00
   -5    5   25      1.37      0.00
   -4    5   25      1.37      0.00
   -3    5   25      3.44      0.00
   -2    5   25     -1.75      0.00
   -1    5   25      2.72      0.00
    0    5   25     -1.74      0.00
    1    5   25      2.20      0.00
    2    5   25      0.10      0.00
    3    5   25      1.34      0.00
    4    5   25      0.52      0.00
    5    5   25     -0.77      0.00
    6    5   25     -1.09      0.00
    7    5   25     -6.09      0.00
    8    5   25      0.19      0.00
    9    5   25      2.36      0.00
   10    5   25     -2.44      0.00
   11    5   25      4.19      0.00
   12    5   25      0.32      0.00
  -18    6   25     -3.18      0.00
  -17    6   25     -0.90      0.00
  -16    6   25      3.98      0.00
  -15    6   25     -1.84      0.00
  -14    6   25      0.42      0.00
  -13    6   25     -4.37      0.00
  -12    6   25      2.01      0.00
  -11    6   25      1.04      0.00
  -10    6   25     -5.51      0.00
   -9    6   25      0.00      0.00
   -8    6   25     -1.89      0.00
   -7    6   25      1.25      0.00
   -6    6   25      2.84      0.00
   -5    6   25      0.94      0.00
   -4    6   25      3.52      0.00
   -3    6   25      1.67      0.00
   -2    6   25     -1.38      0.00
   -1    6   25      0.13      0.00
    0    6   25      0.96      0.00
    1    6   25     -0.58      0.00
    2    6   25     -0.96      0.00
    3    6   25     -2.85      0.00
    4    6   25     -0.26      0.00
    5    6   25      1.75      0.00
    6    6   25     -1.01      0.00
    7    6   25     -1.84      0.00
    8    6   25     -1.31      0.00
    9    6   25     -3.85      0.00
   10    6   25     -0.15      0.00
  -15    7   25      0.84      0.00
  -14    7   25      0.84      0.00
  -13    7   25     -5.16      0.00
  -12    7   25      2.59      0.00
  -11    7   25      1.55      0.00
  -10    7   25      0.78      0.00
   -9    7   25      2.41      0.00
   -8    7   25      0.83      0.00
   -7    7   25      2.26      0.00
   -6    7   25      1.52      0.00
   -5    7   25      3.79      0.00
   -4    7   25      3.82      0.00
   -3    7   25     -0.07      0.00
   -2    7   25     -6.35      0.00
   -1    7   25     -3.92      0.00
    0    7   25      2.75      0.00
    1    7   25     -1.08      0.00
    2    7   25      0.83      0.00
    3    7   25     -0.31      0.00
    4    7   25     -0.39      0.00
    5    7   25      0.12      0.00
    6    7   25      0.04      0.00
   -8    8   25      2.67      0.00
   -7    8   25      2.09      0.00
   -6    8   25     -2.93      0.00
   -5    8   25     -0.45      0.00
   -4    8   25      0.06      0.00
   -3    8   25     -2.49      0.00
   -2    8   25      3.88      0.00
   -1    8   25      3.07      0.00
    0    8   25     -2.81      0.00
  -24    0   26      2.75      0.00
  -22    0   26     -2.85      0.00
  -20    0   26     -1.69      0.00
  -18    0   26     -1.41      0.00
  -16    0   26      0.49      0.00
  -14    0   26     -0.37      0.00
  -12    0   26     -0.49      0.00
  -10    0   26     -2.19      0.00
   -8    0   26     -1.13      0.00
   -6    0   26     -0.64      0.00
   -4    0   26     -4.00      0.00
   -2    0   26     -3.50      0.00
    0    0   26     -1.25      0.00
    2    0   26     -2.07      0.00
    4    0   26     -1.04      0.00
    6    0   26      3.39      0.00
    8    0   26      3.14      0.00
   10    0   26     -8.69      0.00
   12    0   26     -1.41      0.00
   14    0   26     -3.19      0.00
   16    0   26      0.54      0.00
  -25    1   26      2.82      0.00
  -24    1   26      0.61      0.00
  -23    1   26     -0.58      0.00
  -22    1   26     -1.84      0.00
  -21    1   26      0.67      0.00
  -20    1   26     -0.81      0.00
  -19    1   26     -1.77      0.00
  -18    1   26      1.78      0.00
  -17    1   26      1.46      0.00
  -16    1   26      1.55      0.00
  -15    1   26      2.10      0.00
  -14    1   26      1.15      0.00
  -13    1   26      1.28      0.00
  -12    1   26      1.12      0.00
  -11    1   26     -2.88      0.00
  -10    1   26      0.13      0.00
   -9    1   26     -2.46      0.00
   -8    1   26      0.30      0.00
   -7    1   26     -3.02      0.00
   -6    1   26     -0.65      0.00
   -5    1   26     -0.97      0.00
   -4    1   26     -2.24      0.00
   -3    1   26     -3.23      0.00
   -2    1   26      2.73      0.00
   -1    1   26     -3.04      0.00
    0    1   26      3.65      0.00
    1    1   26     -3.11      0.00
    2    1   26     -0.50      0.00
    3    1   26     -1.52      0.00
    4    1   26     -2.18      0.00
    5    1   26      0.35      0.00
    6    1   26      2.51      0.00
    7    1   26     -1.34      0.00
    8    1   26     -2.36      0.00
    9    1   26     -1.51      0.00
   10    1   26      0.27      0.00
   11    1   26      0.89      0.00
   12    1   26     -2.14      0.00
   13    1   26      3.48      0.00
   14    1   26      0.47      0.00
   15    1   26     -0.25      0.00
   16    1   26     -2.74      0.00
  -24    2   26     -2.60      0.00
  -23    2   26     -1.32      0.00
  -22    2   26     -5.26      0.00
  -21    2   26      2.22      0.00
  -20    2   26     -1.28      0.00
  -19    2   26     -1.60      0.00
  -18    2   26      9.29      0.00
  -17    2   26     -1.05      0.00
  -16    2   26     -0.30      0.00
  -15    2   26      2.25      0.00
  -14    2   26     -0.44      0.00
  -13    2   26     -0.21      0.00
  -12    2   26      0.40      0.00
  -11    2   26     -1.57      0.00
  -10    2   26     -0.87      0.00
   -9    2   26     -0.80      0.00
   -8    2   26      0.19      0.00
   -7    2   26     -2.99      0.00
   -6    2   26     -0.61      0.00
   -5    2   26      0.91      0.00
   -4    2   26      0.17      0.00
   -3    2   26      0.40      0.00
   -2    2   26      1.79      0.00
   -1    2   26      0.00      0.00
    0    2   26     -2.71      0.00
    1    2   26     -0.07      0.00
    2    2   26     -3.24      0.00
    3    2   26      1.30      0.00
    4    2   26     -3.00      0.00
    5    2   26      2.42      0.00
    6    2   26     -0.41      0.00
    7    2   26     -0.44      0.00
    8    2   26      1.65      0.00
    9    2   26     -2.34      0.00
   10    2   26     -1.38      0.00
   11    2   26     -3.80      0.00
   12    2   26      1.67      0.00
   13    2   26      1.84      0.00
   14    2   26     -2.13      0.00
   15    2   26      3.27      0.00
  -23    3   26     -1.57      0.00
  -22    3   26      2.41      0.00
  -21    3   26     -7.67      0.00
  -20    3   26      4.94      0.00
  -19    3   26      2.26      0.00
  -18    3   26      3.13      0.00
  -17    3   26     -1.40      0.00
  -16    3   26     -0.21      0.00
  -15    3   26      4.77      0.00
  -14    3   26     -1.28      0.00
  -13    3   26     -0.75      0.00
  -12    3   26     -2.03      0.00
  -11    3   26     -2.08      0.00
  -10    3   26      1.99      0.00
   -9    3   26     -1.26      0.00
   -8    3   26     -1.54      0.00
   -7    3   26     -0.68      0.00
   -6    3   26     -0.76      0.00
   -5    3   26      1.12      0.00
   -4    3   26     -0.74      0.00
   -3    3   26     -1.20      0.00
   -2    3   26     -1.10      0.00
   -1    3   26     -1.64      0.00
    0    3   26     -1.55      0.00
    1    3   26     -0.15      0.00
    2    3   26      0.38      0.00
    3    3   26      0.59      0.00
    4    3   26      0.08      0.00
    5    3   26     -1.74      0.00
    6    3   26     -1.86      0.00
    7    3   26     -1.89      0.00
    8    3   26     -3.20      0.00
    9    3   26      0.52      0.00
   10    3   26      1.95      0.00
   11    3   26      0.99      0.00
   12    3   26      0.67      0.00
   13    3   26      5.08      0.00
   14    3   26      0.28      0.00
   15    3   26      0.25      0.00
  -22    4   26      2.59      0.00
  -21    4   26      2.77      0.00
  -20    4   26     -2.67      0.00
  -19    4   26      0.19      0.00
  -18    4   26     -0.77      0.00
  -17    4   26     -2.45      0.00
  -16    4   26      0.38      0.00
  -15    4   26     -0.54      0.00
  -14    4   26      1.01      0.00
  -13    4   26      0.50      0.00
  -12    4   26      0.72      0.00
  -11    4   26     -1.84      0.00
  -10    4   26      1.51      0.00
   -9    4   26     -0.57      0.00
   -8    4   26      0.16      0.00
   -7    4   26      0.90      0.00
   -6    4   26      1.30      0.00
   -5    4   26     -0.79      0.00
   -4    4   26     -0.03      0.00
   -3    4   26      0.51      0.00
   -2    4   26      0.75      0.00
   -1    4   26      0.05      0.00
    0    4   26      0.31      0.00
    1    4   26      1.38      0.00
    2    4   26     -1.08      0.00
    3    4   26      0.60      0.00
    4    4   26      0.40      0.00
    5    4   26     -2.58      0.00
    6    4   26      1.95      0.00
    7    4   26     -1.16      0.00
    8    4   26      0.21      0.00
    9    4   26     -0.47      0.00
   10    4   26      1.18      0.00
   11    4   26     -0.44      0.00
   12    4   26     -2.30      0.00
   13    4   26      3.41      0.00
  -20    5   26      4.15      0.00
  -19    5   26      0.61      0.00
  -18    5   26      2.51      0.00
  -17    5   26     -0.93      0.00
  -16    5   26     -0.58      0.00
  -15    5   26     -1.18      0.00
  -14    5   26     -7.38      0.00
  -13    5   26      1.03      0.00
  -12    5   26     -1.79      0.00
  -11    5   26      0.55      0.00
  -10    5   26     -0.35      0.00
   -9    5   26      0.42      0.00
   -8    5   26      1.50      0.00
   -7    5   26      1.18      0.00
   -6    5   26      1.24      0.00
   -5    5   26      2.54      0.00
   -4    5   26      1.06      0.00
   -3    5   26      0.40      0.00
   -2    5   26      1.09      0.00
   -1    5   26     -0.35      0.00
    0    5   26     -0.89      0.00
    1    5   26      0.77      0.00
    2    5   26      0.92      0.00
    3    5   26      0.69      0.00
    4    5   26     -0.95      0.00
    5    5   26     -1.14      0.00
    6    5   26     -5.64      0.00
    7    5   26      2.50      0.00
    8    5   26      6.36      0.00
    9    5   26      0.62      0.00
   10    5   26      2.69      0.00
   11    5   26      0.51      0.00
  -18    6   26     -1.60      0.00
  -17    6   26      3.49      0.00
  -16    6   26     -1.72      0.00
  -15    6   26      0.97      0.00
  -14    6   26     -2.29      0.00
  -13    6   26      2.14      0.00
  -12    6   26      3.55      0.00
  -11    6   26     -3.10      0.00
  -10    6   26     -0.34      0.00
   -9    6   26      2.13      0.00
   -8    6   26      0.73      0.00
   -7    6   26      3.71      0.00
   -6    6   26     -0.35      0.00
   -5    6   26     -0.18      0.00
   -4    6   26      0.66      0.00
   -3    6   26     -3.26      0.00
   -2    6   26     -1.64      0.00
   -1    6   26     -0.09      0.00
    0    6   26     -2.85      0.00
    1    6   26     -0.40      0.00
    2    6   26     -1.35      0.00
    3    6   26      1.89      0.00
    4    6   26      2.78      0.00
    5    6   26     -0.99      0.00
    6    6   26     -1.31      0.00
    7    6   26     -0.43      0.00
    8    6   26     -1.07      0.00
    9    6   26      0.17      0.00
  -14    7   26     -3.97      0.00
  -13    7   26      3.45      0.00
  -12    7   26      3.85      0.00
  -11    7   26     -0.43      0.00
  -10    7   26      1.52      0.00
   -9    7   26     -0.71      0.00
   -8    7   26      1.31      0.00
   -7    7   26      2.30      0.00
   -6    7   26      0.44      0.00
   -5    7   26      0.18      0.00
   -4    7   26     -2.62      0.00
   -3    7   26     -6.39      0.00
   -2    7   26     -5.60      0.00
   -1    7   26      3.42      0.00
    0    7   26      0.56      0.00
    1    7   26     -0.64      0.00
    2    7   26      0.60      0.00
    3    7   26      0.79      0.00
    4    7   26     -0.77      0.00
    5    7   26      2.37      0.00
   -4    8   26     -1.59      0.00
  -23    0   27     -1.45      0.00
  -21    0   27      2.13      0.00
  -19    0   27      1.27      0.00
  -17    0   27      1.09      0.00
  -15    0   27     -0.16      0.00
  -13    0   27      2.19      0.00
  -11    0   27      2.15      0.00
   -9    0   27      3.26      0.00
   -7    0   27      3.25      0.00
   -5    0   27     -0.15      0.00
   -3    0   27      1.11      0.00
   -1    0   27      4.01      0.00
    1    0   27      3.52      0.00
    3    0   27      3.95      0.00
    5    0   27      3.31      0.00
    7    0   27     -1.15      0.00
    9    0   27    -11.01      0.00
   11    0   27      2.35      0.00
   13    0   27     -1.73      0.00
   15    0   27      3.19      0.00
  -24    1   27     -0.95      0.00
  -23    1   27     -0.71      0.00
  -22    1   27      1.04      0.00
  -21    1   27      0.75      0.00
  -20    1   27      0.23      0.00
  -19    1   27      1.20      0.00
  -18    1   27      0.45      0.00
  -17    1   27      0.03      0.00
  -16    1   27      0.39      0.00
  -15    1   27     -0.50      0.00
  -14    1   27      0.63      0.00
  -13    1   27      0.32      0.00
  -12    1   27     -1.24      0.00
  -11    1   27     -0.48      0.00
  -10    1   27      0.22      0.00
   -9    1   27     -0.28      0.00
   -8    1   27      1.09      0.00
   -7    1   27     -0.52      0.00
   -6    1   27      2.42      0.00
   -5    1   27      0.55      0.00
   -4    1   27      0.24      0.00
   -3    1   27      2.38      0.00
   -2    1   27      2.25      0.00
   -1    1   27      2.06      0.00
    0    1   27      3.52      0.00
    1    1   27     -2.44      0.00
    2    1   27      4.10      0.00
    3    1   27     -1.74      0.00
    4    1   27      2.85      0.00
    5    1   27      2.22      0.00
    6    1   27     -1.52      0.00
    7    1   27     -2.93      0.00
    8    1   27     -1.32      0.00
    9    1   27      0.90      0.00
   10    1   27      0.84      0.00
   11    1   27      0.56      0.00
   12    1   27      4.23      0.00
   13    1   27      2.24      0.00
   14    1   27      0.41      0.00
   15    1   27     -0.46      0.00
  -24    2   27     -2.18      0.00
  -23    2   27     -4.45      0.00
  -22    2   27      1.07      0.00
  -21    2   27      4.04      0.00
  -20    2   27     -4.59      0.00
  -19    2   27      8.15      0.00
  -18    2   27     -1.29      0.00
  -17    2   27     -6.87      0.00
  -16    2   27      0.27      0.00
  -15    2   27     -2.78      0.00
  -14    2   27      0.40      0.00
  -13    2   27      1.52      0.00
  -12    2   27     -0.08      0.00
  -11    2   27      0.24      0.00
  -10    2   27     -0.25      0.00
   -9    2   27      1.94      0.00
   -8    2   27     -1.75      0.00
   -7    2   27      1.56      0.00
   -6    2   27      1.99      0.00
   -5    2   27      1.69      0.00
   -4    2   27      1.59      0.00
   -3    2   27      1.03      0.00
   -2    2   27      1.52      0.00
   -1    2   27     -1.13      0.00
    0    2   27      1.06      0.00
    1    2   27     -0.88      0.00
    2    2   27      2.44      0.00
    3    2   27      0.70      0.00
    4    2   27      3.08      0.00
    5    2   27      1.50      0.00
    6    2   27     -2.53      0.00
    7    2   27     -0.42      0.00
    8    2   27     -3.68      0.00
    9    2   27     -0.92      0.00
   10    2   27     -2.40      0.00
   11    2   27      2.25      0.00
   12    2   27      3.47      0.00
   13    2   27      0.97      0.00
   14    2   27      5.25      0.00
   15    2   27      1.13      0.00
  -23    3   27      2.85      0.00
  -22    3   27     -5.39      0.00
  -21    3   27      2.60      0.00
  -20    3   27      3.62      0.00
  -19    3   27      0.09      0.00
  -18    3   27     -3.35      0.00
  -17    3   27     -3.27      0.00
  -16    3   27      4.04      0.00
  -15    3   27     -1.86      0.00
  -14    3   27     -2.50      0.00
  -13    3   27      1.38      0.00
  -12    3   27     -0.68      0.00
  -11    3   27      1.49      0.00
  -10    3   27      0.24      0.00
   -9    3   27     -1.33      0.00
   -8    3   27      1.25      0.00
   -7    3   27     -1.54      0.00
   -6    3   27      1.70      0.00
   -5    3   27      0.30      0.00
   -4    3   27     -2.00      0.00
   -3    3   27      0.77      0.00
   -2    3   27     -0.54      0.00
   -1    3   27      0.09      0.00
    0    3   27      1.84      0.00
    1    3   27      0.48      0.00
    2    3   27      2.15      0.00
    3    3   27      1.47      0.00
    4    3   27     -1.92      0.00
    5    3   27     -0.89      0.00
    6    3   27     -0.84      0.00
    7    3   27     -0.84      0.00
    8    3   27      1.30      0.00
    9    3   27      2.19      0.00
   10    3   27      1.23      0.00
   11    3   27     -0.50      0.00
   12    3   27      6.13      0.00
   13    3   27     -1.81      0.00
   14    3   27     -1.12      0.00
  -22    4   27     -0.41      0.00
  -21    4   27     -1.85      0.00
  -20    4   27     -1.55      0.00
  -19    4   27     -1.53      0.00
  -18    4   27     -2.50      0.00
  -17    4   27     -1.46      0.00
  -16    4   27      3.81      0.00
  -15    4   27      0.15      0.00
  -14    4   27      3.22      0.00
  -13    4   27     -0.79      0.00
  -12    4   27      0.01      0.00
  -11    4   27     -0.15      0.00
  -10    4   27      0.81      0.00
   -9    4   27     -1.49      0.00
   -8    4   27      1.33      0.00
   -7    4   27      0.42      0.00
   -6    4   27     -0.10      0.00
   -5    4   27     -1.53      0.00
   -4    4   27      2.02      0.00
   -3    4   27     -0.79      0.00
   -2    4   27      2.51      0.00
   -1    4   27      0.80      0.00
    0    4   27      1.19      0.00
    1    4   27      0.84      0.00
    2    4   27     -1.46      0.00
    3    4   27      0.86      0.00
    4    4   27     -1.97      0.00
    5    4   27      2.01      0.00
    6    4   27      0.16      0.00
    7    4   27     -1.63      0.00
    8    4   27      0.27      0.00
    9    4   27      0.18      0.00
   10    4   27     -0.33      0.00
   11    4   27     -1.93      0.00
   12    4   27      0.40      0.00
  -20    5   27      1.19      0.00
  -19    5   27      0.80      0.00
  -18    5   27     -1.92      0.00
  -17    5   27     -1.49      0.00
  -16    5   27     -0.41      0.00
  -15    5   27     -3.94      0.00
  -14    5   27      2.28      0.00
  -13    5   27     -0.22      0.00
  -12    5   27      1.62      0.00
  -11    5   27      1.41      0.00
  -10    5   27      0.58      0.00
   -9    5   27     -0.53      0.00
   -8    5   27      0.53      0.00
   -7    5   27     -1.55      0.00
   -6    5   27     -0.62      0.00
   -5    5   27     -0.12      0.00
   -4    5   27     -2.15      0.00
   -3    5   27      2.09      0.00
   -2    5   27     -1.16      0.00
   -1    5   27     -1.86      0.00
    0    5   27      1.18      0.00
    1    5   27     -0.33      0.00
    2    5   27      0.32      0.00
    3    5   27     -3.13      0.00
    4    5   27     -0.91      0.00
    5    5   27     -4.09      0.00
    6    5   27      1.40      0.00
    7    5   27      7.64      0.00
    8    5   27     -1.27      0.00
    9    5   27     -0.83      0.00
   10    5   27     -2.06      0.00
   11    5   27     -2.85      0.00
  -17    6   27     -0.56      0.00
  -16    6   27      1.91      0.00
  -15    6   27      0.64      0.00
  -14    6   27      2.76      0.00
  -13    6   27      4.26      0.00
  -12    6   27     -0.12      0.00
  -11    6   27     -0.07      0.00
  -10    6   27      4.15      0.00
   -9    6   27      2.08      0.00
   -8    6   27      2.11      0.00
   -7    6   27      0.53      0.00
   -6    6   27     -1.83      0.00
   -5    6   27     -0.62      0.00
   -4    6   27     -1.52      0.00
   -3    6   27     -1.75      0.00
   -2    6   27      0.60      0.00
   -1    6   27     -2.83      0.00
    0    6   27     -0.70      0.00
    1    6   27      0.97      0.00
    2    6   27      0.39      0.00
    3    6   27      0.88      0.00
    4    6   27     -1.51      0.00
    5    6   27     -4.16      0.00
    6    6   27      2.35      0.00
    7    6   27     -1.20      0.00
    8    6   27      0.75      0.00
  -13    7   27      3.60      0.00
  -12    7   27     -2.15      0.00
  -11    7   27     -1.13      0.00
  -10    7   27      1.35      0.00
   -9    7   27     -0.44      0.00
   -8    7   27      5.03      0.00
   -7    7   27     -1.66      0.00
   -6    7   27     -2.28      0.00
   -5    7   27     -1.72      0.00
   -4    7   27     -3.61      0.00
   -3    7   27     -3.25      0.00
   -2    7   27      3.35      0.00
   -1    7   27      3.20      0.00
    0    7   27     -1.28      0.00
    1    7   27      0.68      0.00
    2    7   27      1.46      0.00
    3    7   27     -1.30      0.00
    4    7   27      0.56      0.00
  -24    0   28     -1.52      0.00
  -22    0   28      0.93      0.00
  -20    0   28     -0.04      0.00
  -18    0   28      0.97      0.00
  -16    0   28     -1.00      0.00
  -14    0   28     -0.80      0.00
  -12    0   28     -1.78      0.00
  -10    0   28     -1.15      0.00
   -8    0   28     -1.57      0.00
   -6    0   28     -2.93      0.00
   -4    0   28     -0.93      0.00
   -2    0   28     -0.74      0.00
    0    0   28     -3.45      0.00
    2    0   28     -3.16      0.00
    4    0   28     -3.34      0.00
    6    0   28     -0.88      0.00
    8    0   28     -2.00      0.00
   10    0   28      9.88      0.00
   12    0   28     -0.86      0.00
   14    0   28      4.56      0.00
  -24    1   28     -0.71      0.00
  -23    1   28     -1.63      0.00
  -22    1   28      0.64      0.00
  -21    1   28     -1.70      0.00
  -20    1   28      0.07      0.00
  -19    1   28     -1.07      0.00
  -18    1   28      0.19      0.00
  -17    1   28      1.59      0.00
  -16    1   28     -0.37      0.00
  -15    1   28     -0.94      0.00
  -14    1   28     -0.01      0.00
  -13    1   28     -2.08      0.00
  -12    1   28     -1.15      0.00
  -11    1   28     -0.70      0.00
  -10    1   28     -0.87      0.00
   -9    1   28     -0.59      0.00
   -8    1   28      0.25      0.00
   -7    1   28     -0.98      0.00
   -6    1   28      1.46      0.00
   -5    1   28     -2.27      0.00
   -4    1   28     -0.04      0.00
   -3    1   28      0.10      0.00
   -2    1   28      0.56      0.00
   -1    1   28     -0.03      0.00
    0    1   28     -2.27      0.00
    1    1   28     -0.28      0.00
    2    1   28     -0.67      0.00
    3    1   28     -1.88      0.00
    4    1   28      1.27      0.00
    5    1   28     -2.12      0.00
    6    1   28     -2.17      0.00
    7    1   28      1.58      0.00
    8    1   28      2.30      0.00
    9    1   28      0.97      0.00
   10    1   28      2.60      0.00
   11    1   28      0.86      0.00
   12    1   28      0.88      0.00
   13    1   28     -2.06      0.00
   14    1   28     -1.27      0.00
  -23    2   28     -0.18      0.00
  -22    2   28      5.09      0.00
  -21    2   28     -3.62      0.00
  -20    2   28      5.53      0.00
  -19    2   28      1.50      0.00
  -18    2   28     -5.07      0.00
  -17    2   28      1.13      0.00
  -16    2   28      1.23      0.00
  -15    2   28      1.79      0.00
  -14    2   28      0.86      0.00
  -13    2   28     -1.04      0.00
  -12    2   28     -1.29      0.00
  -11    2   28     -1.41      0.00
  -10    2   28     -0.24      0.00
   -9    2   28     -0.76      0.00
   -8    2   28     -0.66      0.00
   -7    2   28      2.66      0.00
   -6    2   28     -2.21      0.00
   -5    2   28      0.94      0.00
   -4    2   28     -3.04      0.00
   -3    2   28     -0.60      0.00
   -2    2   28     -2.29      0.00
   -1    2   28     -1.50      0.00
    0    2   28     -2.72      0.00
    1    2   28      0.28      0.00
    2    2   28     -0.32      0.00
    3    2   28      0.70      0.00
    4    2   28      0.20      0.00
    5    2   28     -4.60      0.00
    6    2   28     -1.60      0.00
    7    2   28     -2.00      0.00
    8    2   28      1.89      0.00
    9    2   28      1.51      0.00
   10    2   28      0.48      0.00
   11    2   28      5.25      0.00
   12    2   28     -1.56      0.00
   13    2   28      3.75      0.00
   14    2   28     -1.03      0.00
  -22    3   28      1.77      0.00
  -21    3   28      4.23      0.00
  -20    3   28      1.54      0.00
  -19    3   28      1.27      0.00
  -18    3   28     -3.33      0.00
  -17    3   28      7.05      0.00
  -16    3   28     -1.26      0.00
  -15    3   28     -2.69      0.00
  -14    3   28      0.86      0.00
  -13    3   28      0.04      0.00
  -12    3   28     -2.56      0.00
  -11    3   28      0.52      0.00
  -10    3   28     -1.52      0.00
   -9    3   28      1.85      0.00
   -8    3   28     -1.40      0.00
   -7    3   28     -0.43      0.00
   -6    3   28      1.91      0.00
   -5    3   28     -2.12      0.00
   -4    3   28      0.82      0.00
   -3    3   28      0.59      0.00
   -2    3   28     -0.53      0.00
   -1    3   28      0.54      0.00
    0    3   28     -0.13      0.00
    1    3   28     -0.28      0.00
    2    3   28      1.86      0.00
    3    3   28     -3.35      0.00
    4    3   28     -2.22      0.00
    5    3   28      0.64      0.00
    6    3   28     -1.60      0.00
    7    3   28      2.71      0.00
    8    3   28      2.02      0.00
    9    3   28     -0.63      0.00
   10    3   28      0.94      0.00
   11    3   28      0.03      0.00
   12    3   28     -0.38      0.00
   13    3   28     -6.19      0.00
  -21    4   28      1.80      0.00
  -20    4   28     -1.26      0.00
  -19    4   28      0.68      0.00
  -18    4   28      1.39      0.00
  -17    4   28      4.28      0.00
  -16    4   28      2.35      0.00
  -15    4   28     -1.07      0.00
  -14    4   28     -0.85      0.00
  -13    4   28     -3.43      0.00
  -12    4   28     -1.60      0.00
  -11    4   28     -1.11      0.00
  -10    4   28     -1.30      0.00
   -9    4   28      0.58      0.00
   -8    4   28      0.80      0.00
   -7    4   28      0.36      0.00
   -6    4   28     -0.60      0.00
   -5    4   28      0.65      0.00
   -4    4   28      0.48      0.00
   -3    4   28      0.15      0.00
   -2    4   28      1.91      0.00
   -1    4   28     -1.99      0.00
    0    4   28     -0.43      0.00
    1    4   28     -1.53      0.00
    2    4   28     -1.27      0.00
    3    4   28     -0.55      0.00
    4    4   28      1.04      0.00
    5    4   28     -0.17      0.00
    6    4   28     -1.21      0.00
    7    4   28      0.06      0.00
    8    4   28      2.19      0.00
    9    4   28      1.63      0.00
   10    4   28     -1.09      0.00
   11    4   28      0.35      0.00
   12    4   28      1.74      0.00
  -19    5   28     -2.59      0.00
  -18    5   28     -1.69      0.00
  -17    5   28      0.99      0.00
  -16    5   28     -2.62      0.00
  -15    5   28      2.78      0.00
  -14    5   28     -1.14      0.00
  -13    5   28      2.66      0.00
  -12    5   28      3.32      0.00
  -11    5   28      1.28      0.00
  -10    5   28     -0.62      0.00
   -9    5   28      0.19      0.00
   -8    5   28      0.49      0.00
   -7    5   28     -1.13      0.00
   -6    5   28      2.70      0.00
   -5    5   28     -1.23      0.00
   -4    5   28      1.14      0.00
   -3    5   28      0.42      0.00
   -2    5   28     -3.71      0.00
   -1    5   28     -0.08      0.00
    0    5   28     -0.15      0.00
    1    5   28     -1.08      0.00
    2    5   28     -1.51      0.00
    3    5   28      0.76      0.00
    4    5   28     -0.82      0.00
    5    5   28      2.75      0.00
    6    5   28      5.19      0.00
    7    5   28      1.25      0.00
    8    5   28     -3.00      0.00
    9    5   28     -1.64      0.00
   10    5   28     -1.79      0.00
  -16    6   28      2.75      0.00
  -15    6   28     -0.20      0.00
  -14    6   28      2.87      0.00
  -13    6   28     -2.05      0.00
  -12    6   28     -0.64      0.00
  -11    6   28      0.70      0.00
  -10    6   28     -0.06      0.00
   -9    6   28     -0.70      0.00
   -8    6   28     -1.69      0.00
   -7    6   28     -1.35      0.00
   -6    6   28     -2.08      0.00
   -5    6   28     -0.95      0.00
   -4    6   28      0.53      0.00
   -3    6   28     -0.87      0.00
   -2    6   28     -2.01      0.00
   -1    6   28     -1.66      0.00
    0    6   28      2.37      0.00
    1    6   28      1.05      0.00
    2    6   28     -0.66      0.00
    3    6   28      0.89      0.00
    4    6   28     -3.07      0.00
    5    6   28      2.48      0.00
    6    6   28      2.56      0.00
    7    6   28     -1.23      0.00
  -12    7   28     -2.11      0.00
  -11    7   28      0.17      0.00
  -10    7   28     -0.63      0.00
   -9    7   28     -1.26      0.00
   -8    7   28     -1.92      0.00
   -7    7   28     -8.69      0.00
   -6    7   28     -0.89      0.00
   -5    7   28     -1.05      0.00
   -4    7   28     -2.08      0.00
   -3    7   28      2.52      0.00
   -2    7   28      3.34      0.00
   -1    7   28     -0.30      0.00
    0    7   28      0.82      0.00
    1    7   28      2.83      0.00
    2    7   28     -0.30      0.00
  -23    0   29      2.30      0.00
  -21    0   29      1.64      0.00
  -19    0   29      0.64      0.00
  -17    0   29     -1.90      0.00
  -15    0   29      0.03      0.00
  -13    0   29      0.27      0.00
  -11    0   29      1.22      0.00
   -9    0   29      1.10      0.00
   -7    0   29      1.64      0.00
   -5    0   29      1.13      0.00
   -3    0   29      1.70      0.00
   -1    0   29      1.64      0.00
    1    0   29      3.23      0.00
    3    0   29      1.45      0.00
    5    0   29      2.79      0.00
    7    0   29     -0.18      0.00
    9    0   29      6.16      0.00
   11    0   29     -3.07      0.00
   13    0   29      3.74      0.00
  -23    1   29      1.71      0.00
  -22    1   29      0.38      0.00
  -21    1   29     -1.07      0.00
  -20    1   29     -1.18      0.00
  -19    1   29     -0.75      0.00
  -18    1   29      0.37      0.00
  -17    1   29     -1.02      0.00
  -16    1   29     -2.58      0.00
  -15    1   29      0.42      0.00
  -14    1   29      1.48      0.00
  -13    1   29      0.09      0.00
  -12    1   29      2.15      0.00
  -11    1   29      0.68      0.00
  -10    1   29      1.82      0.00
   -9    1   29      0.90      0.00
   -8    1   29      2.46      0.00
   -7    1   29      0.26      0.00
   -6    1   29      1.07      0.00
   -5    1   29     -1.87      0.00
   -4    1   29      1.69      0.00
   -3    1   29      1.11      0.00
   -2    1   29      1.86      0.00
   -1    1   29     -0.26      0.00
    0    1   29      2.22      0.00
    1    1   29      0.48      0.00
    2    1   29      0.67      0.00
    3    1   29      0.17      0.00
    4    1   29      2.14      0.00
    5    1   29     -1.74      0.00
    6    1   29      1.07      0.00
    7    1   29      0.41      0.00
    8    1   29     -3.64      0.00
    9    1   29      0.47      0.00
   10    1   29     -0.63      0.00
   11    1   29     -2.77      0.00
   12    1   29      0.94      0.00
   13    1   29     -1.93      0.00
   14    1   29     -0.50      0.00
  -23    2   29      6.46      0.00
  -22    2   29      0.51      0.00
  -21    2   29      2.70      0.00
  -20    2   29      1.56      0.00
  -19    2   29     -5.40      0.00
  -18    2   29      0.25      0.00
  -17    2   29     -0.53      0.00
  -16    2   29      1.10      0.00
  -15    2   29     -0.77      0.00
  -14    2   29     -1.97      0.00
  -13    2   29      1.34      0.00
  -12    2   29     -0.36      0.00
  -11    2   29      0.57      0.00
  -10    2   29      0.78      0.00
   -9    2   29      1.67      0.00
   -8    2   29      2.51      0.00
   -7    2   29     -0.95      0.00
   -6    2   29     -0.14      0.00
   -5    2   29     -0.81      0.00
   -4    2   29     -0.94      0.00
   -3    2   29      2.47      0.00
   -2    2   29     -1.37      0.00
   -1    2   29      1.47      0.00
    0    2   29     -0.21      0.00
    1    2   29      3.37      0.00
    2    2   29     -0.92      0.00
    3    2   29      1.70      0.00
    4    2   29     -3.95      0.00
    5    2   29     -1.79      0.00
    6    2   29      0.19      0.00
    7    2   29      1.47      0.00
    8    2   29      2.72      0.00
    9    2   29     -1.44      0.00
   10    2   29      3.00      0.00
   11    2   29      0.92      0.00
   12    2   29     -0.94      0.00
   13    2   29      1.75      0.00
  -22    3   29      7.03      0.00
  -21    3   29     -0.47      0.00
  -20    3   29      1.92      0.00
  -19    3   29     -5.88      0.00
  -18    3   29     -0.01      0.00
  -17    3   29     -0.09      0.00
  -16    3   29     -6.69      0.00
  -15    3   29      2.08      0.00
  -14    3   29      0.69      0.00
  -13    3   29     -0.57      0.00
  -12    3   29      1.40      0.00
  -11    3   29      2.17      0.00
  -10    3   29      1.55      0.00
   -9    3   29      0.46      0.00
   -8    3   29     -1.90      0.00
   -7    3   29      3.15      0.00
   -6    3   29      0.27      0.00
   -5    3   29      1.22      0.00
   -4    3   29      1.71      0.00
   -3    3   29      0.49      0.00
   -2    3   29      1.05      0.00
   -1    3   29      0.13      0.00
    0    3   29      1.30      0.00
    1    3   29      1.62      0.00
    2    3   29     -1.03      0.00
    3    3   29     -2.14      0.00
    4    3   29      1.67      0.00
    5    3   29     -0.57      0.00
    6    3   29     -0.21      0.00
    7    3   29      3.12      0.00
    8    3   29     -4.79      0.00
    9    3   29      0.16      0.00
   10    3   29     -0.48      0.00
   11    3   29     -1.93      0.00
   12    3   29     -1.91      0.00
  -21    4   29      0.90      0.00
  -20    4   29     -0.39      0.00
  -19    4   29      0.59      0.00
  -18    4   29      1.86      0.00
  -17    4   29      0.63      0.00
  -16    4   29     -1.25      0.00
  -15    4   29     -0.35      0.00
  -14    4   29     -1.07      0.00
  -13    4   29     -1.10      0.00
  -12    4   29      1.46      0.00
  -11    4   29      0.48      0.00
  -10    4   29      1.75      0.00
   -9    4   29      0.55      0.00
   -8    4   29     -0.79      0.00
   -7    4   29     -1.04      0.00
   -6    4   29     -1.15      0.00
   -5    4   29     -0.53      0.00
   -4    4   29     -0.37      0.00
   -3    4   29      1.46      0.00
   -2    4   29     -1.17      0.00
   -1    4   29     -0.14      0.00
    0    4   29      0.57      0.00
    1    4   29     -0.07      0.00
    2    4   29      0.11      0.00
    3    4   29      1.25      0.00
    4    4   29      0.76      0.00
    5    4   29     -2.48      0.00
    6    4   29      1.96      0.00
    7    4   29     -0.36      0.00
    8    4   29      2.55      0.00
    9    4   29     -2.65      0.00
   10    4   29     -2.94      0.00
   11    4   29      1.87      0.00
  -19    5   29     -1.92      0.00
  -18    5   29      2.21      0.00
  -17    5   29     -0.39      0.00
  -16    5   29      1.76      0.00
  -15    5   29      1.33      0.00
  -14    5   29      1.20      0.00
  -13    5   29      7.48      0.00
  -12    5   29     -1.11      0.00
  -11    5   29      0.10      0.00
  -10    5   29     -1.46      0.00
   -9    5   29      1.48      0.00
   -8    5   29     -0.72      0.00
   -7    5   29      2.11      0.00
   -6    5   29     -0.81      0.00
   -5    5   29     -1.65      0.00
   -4    5   29      0.60      0.00
   -3    5   29     -1.88      0.00
   -2    5   29     -1.29      0.00
   -1    5   29      1.23      0.00
    0    5   29      0.35      0.00
    1    5   29     -1.15      0.00
    2    5   29      2.39      0.00
    3    5   29      0.09      0.00
    4    5   29      1.35      0.00
    5    5   29      2.70      0.00
    6    5   29     -1.39      0.00
    7    5   29     -1.68      0.00
    8    5   29     -4.55      0.00
    9    5   29     -1.45      0.00
  -15    6   29     -0.73      0.00
  -14    6   29     -3.09      0.00
  -13    6   29     -2.02      0.00
  -12    6   29     -2.68      0.00
  -11    6   29     -2.41      0.00
  -10    6   29     -2.54      0.00
   -9    6   29     -0.89      0.00
   -8    6   29     -1.94      0.00
   -7    6   29     -0.63      0.00
   -6    6   29     -2.16      0.00
   -5    6   29      1.61      0.00
   -4    6   29      0.14      0.00
   -3    6   29     -2.35      0.00
   -2    6   29      0.16      0.00
   -1    6   29      2.88      0.00
    0    6   29      2.43      0.00
    1    6   29     -1.89      0.00
    2    6   29      0.90      0.00
    3    6   29     -1.67      0.00
    4    6   29     -0.14      0.00
    5    6   29      3.12      0.00
    6    6   29     -1.49      0.00
  -10    7   29     -1.73      0.00
   -9    7   29      0.31      0.00
   -8    7   29     -4.38      0.00
   -7    7   29      1.39      0.00
   -6    7   29      5.15      0.00
   -5    7   29      0.21      0.00
   -4    7   29      1.83      0.00
   -3    7   29      3.44      0.00
   -2    7   29      0.98      0.00
   -1    7   29      0.81      0.00
    0    7   29      2.43      0.00
    1    7   29     -0.58      0.00
  -22    0   30     -0.51      0.00
  -20    0   30     -1.26      0.00
  -18    0   30     -2.07      0.00
  -16    0   30     -0.11      0.00
  -14    0   30     -0.46      0.00
  -12    0   30      1.42      0.00
  -10    0   30     -0.53      0.00
   -8    0   30     -1.13      0.00
   -6    0   30     -4.10      0.00
   -4    0   30     -0.23      0.00
   -2    0   30     -0.25      0.00
    0    0   30      0.86      0.00
    2    0   30     -2.15      0.00
    4    0   30     -0.75      0.00
    6    0   30     -0.35      0.00
    8    0   30      3.04      0.00
   10    0   30     -6.07      0.00
   12    0   30     -0.39      0.00
  -23    1   30     -0.02      0.00
  -22    1   30     -2.70      0.00
  -21    1   30     -0.61      0.00
  -20    1   30      0.41      0.00
  -19    1   30      2.21      0.00
  -18    1   30      1.88      0.00
  -17    1   30     -0.92      0.00
  -16    1   30      2.88      0.00
  -15    1   30      1.72      0.00
  -14    1   30      0.54      0.00
  -13    1   30     -1.63      0.00
  -12    1   30      0.78      0.00
  -11    1   30     -1.51      0.00
  -10    1   30     -0.22      0.00
   -9    1   30     -0.71      0.00
   -8    1   30      0.03      0.00
   -7    1   30     -2.56      0.00
   -6    1   30     -1.42      0.00
   -5    1   30     -1.27      0.00
   -4    1   30      1.18      0.00
   -3    1   30     -0.45      0.00
   -2    1   30     -1.04      0.00
   -1    1   30     -2.12      0.00
    0    1   30     -1.05      0.00
    1    1   30     -3.61      0.00
    2    1   30     -0.59      0.00
    3    1   30     -1.28      0.00
    4    1   30      0.36      0.00
    5    1   30     -2.56      0.00
    6    1   30      0.47      0.00
    7    1   30     -2.23      0.00
    8    1   30      0.47      0.00
    9    1   30      2.77      0.00
   10    1   30     -3.81      0.00
   11    1   30      1.54      0.00
   12    1   30     -1.19      0.00
   13    1   30     -3.08      0.00
  -22    2   30     -1.81      0.00
  -21    2   30      0.72      0.00
  -20    2   30     -2.57      0.00
  -19    2   30      3.02      0.00
  -18    2   30      1.30      0.00
  -17    2   30      1.85      0.00
  -16    2   30     -0.17      0.00
  -15    2   30     -2.09      0.00
  -14    2   30      2.08      0.00
  -13    2   30     -0.60      0.00
  -12    2   30     -1.21      0.00
  -11    2   30     -0.02      0.00
  -10    2   30      1.10      0.00
   -9    2   30      1.75      0.00
   -8    2   30     -3.63      0.00
   -7    2   30     -0.93      0.00
   -6    2   30     -1.60      0.00
   -5    2   30     -0.74      0.00
   -4    2   30      2.45      0.00
   -3    2   30     -0.93      0.00
   -2    2   30     -1.08      0.00
   -1    2   30      0.08      0.00
    0    2   30     -0.34      0.00
    1    2   30     -0.72      0.00
    2    2   30     -2.54      0.00
    3    2   30     -0.98      0.00
    4    2   30     -3.32      0.00
    5    2   30      1.28      0.00
    6    2   30      2.49      0.00
    7    2   30      2.64      0.00
    8    2   30      0.45      0.00
    9    2   30      1.11      0.00
   10    2   30      0.97      0.00
   11    2   30     -3.03      0.00
   12    2   30     -0.65      0.00
  -21    3   30     -0.62      0.00
  -20    3   30     -4.76      0.00
  -19    3   30     -0.73      0.00
  -18    3   30      1.01      0.00
  -17    3   30     -1.68      0.00
  -16    3   30      0.66      0.00
  -15    3   30      2.80      0.00
  -14    3   30     -0.47      0.00
  -13    3   30      0.55      0.00
  -12    3   30      0.32      0.00
  -11    3   30     -0.74      0.00
  -10    3   30     -0.97      0.00
   -9    3   30     -2.58      0.00
   -8    3   30      1.47      0.00
   -7    3   30      1.98      0.00
   -6    3   30     -0.60      0.00
   -5    3   30      0.43      0.00
   -4    3   30     -1.65      0.00
   -3    3   30     -0.57      0.00
   -2    3   30     -2.42      0.00
   -1    3   30     -0.59      0.00
    0    3   30      0.32      0.00
    1    3   30     -2.01      0.00
    2    3   30     -1.86      0.00
    3    3   30      0.50      0.00
    4    3   30     -1.08      0.00
    5    3   30     -1.33      0.00
    6    3   30      2.48      0.00
    7    3   30     -2.08      0.00
    8    3   30     -0.90      0.00
    9    3   30      3.75      0.00
   10    3   30     -0.83      0.00
   11    3   30      0.16      0.00
  -20    4   30      0.16      0.00
  -19    4   30      0.75      0.00
  -18    4   30      2.20      0.00
  -17    4   30     -1.09      0.00
  -16    4   30      1.51      0.00
  -15    4   30     -2.14      0.00
  -14    4   30     -1.57      0.00
  -13    4   30      1.13      0.00
  -12    4   30      1.49      0.00
  -11    4   30      0.61      0.00
  -10    4   30      0.66      0.00
   -9    4   30     -1.71      0.00
   -8    4   30     -0.76      0.00
   -7    4   30      0.67      0.00
   -6    4   30     -0.29      0.00
   -5    4   30      0.04      0.00
   -4    4   30      1.28      0.00
   -3    4   30     -0.65      0.00
   -2    4   30     -1.04      0.00
   -1    4   30      0.83      0.00
    0    4   30     -1.76      0.00
    1    4   30     -0.19      0.00
    2    4   30     -0.29      0.00
    3    4   30      0.67      0.00
    4    4   30     -2.02      0.00
    5    4   30      1.00      0.00
    6    4   30      2.40      0.00
    7    4   30      1.05      0.00
    8    4   30      0.48      0.00
    9    4   30     -3.67      0.00
   10    4   30      1.56      0.00
  -18    5   30     -0.54      0.00
  -17    5   30     -0.35      0.00
  -16    5   30     -0.46      0.00
  -15    5   30     -1.70      0.00
  -14    5   30      4.56      0.00
  -13    5   30     -3.52      0.00
  -12    5   30     -3.62      0.00
  -11    5   30     -1.94      0.00
  -10    5   30     -0.16      0.00
   -9    5   30     -0.11      0.00
   -8    5   30      0.52      0.00
   -7    5   30      0.02      0.00
   -6    5   30     -2.92      0.00
   -5    5   30      1.91      0.00
   -4    5   30     -0.78      0.00
   -3    5   30     -1.35      0.00
   -2    5   30     -0.50      0.00
   -1    5   30      0.48      0.00
    0    5   30     -0.87      0.00
    1    5   30      0.93      0.00
    2    5   30      1.26      0.00
    3    5   30     -0.39      0.00
    4    5   30      0.50      0.00
    5    5   30     -2.37      0.00
    6    5   30     -0.66      0.00
    7    5   30     -1.85      0.00
    8    5   30     -1.24      0.00
  -15    6   30     -3.22      0.00
  -14    6   30     -1.10      0.00
  -13    6   30     -2.11      0.00
  -12    6   30     -2.63      0.00
  -11    6   30      0.42      0.00
  -10    6   30      0.94      0.00
   -9    6   30     -0.13      0.00
   -8    6   30     -0.57      0.00
   -7    6   30     -1.20      0.00
   -6    6   30      0.85      0.00
   -5    6   30      2.14      0.00
   -4    6   30     -1.63      0.00
   -3    6   30      0.61      0.00
   -2    6   30      1.97      0.00
   -1    6   30      3.26      0.00
    0    6   30     -3.04      0.00
    1    6   30      0.91      0.00
    2    6   30      0.75      0.00
    3    6   30     -1.74      0.00
    4    6   30      3.55      0.00
   -8    7   30      1.56      0.00
   -7    7   30      5.83      0.00
   -6    7   30      0.04      0.00
   -5    7   30      0.08      0.00
   -4    7   30      1.89      0.00
   -3    7   30      0.99      0.00
   -2    7   30      0.34      0.00
  -23    0   31     -0.22      0.00
  -21    0   31     -1.52      0.00
  -19    0   31     -2.68      0.00
  -17    0   31      1.48      0.00
  -15    0   31      3.46      0.00
  -13    0   31      4.90      0.00
  -11    0   31      0.51      0.00
   -9    0   31      1.14      0.00
   -7    0   31     -2.33      0.00
   -5    0   31      2.46      0.00
   -3    0   31      0.79      0.00
   -1    0   31      2.56      0.00
    1    0   31     -1.11      0.00
    3    0   31      0.50      0.00
    5    0   31      0.97      0.00
    7    0   31     -2.59      0.00
    9    0   31     -7.61      0.00
   11    0   31      1.94      0.00
  -22    1   31      2.49      0.00
  -21    1   31      0.83      0.00
  -20    1   31      2.44      0.00
  -19    1   31      0.81      0.00
  -18    1   31     -0.20      0.00
  -17    1   31      0.20      0.00
  -16    1   31      2.29      0.00
  -15    1   31     -2.71      0.00
  -14    1   31     -1.36      0.00
  -13    1   31     -0.25      0.00
  -12    1   31     -0.63      0.00
  -11    1   31     -1.73      0.00
  -10    1   31      0.54      0.00
   -9    1   31      0.16      0.00
   -8    1   31      0.58      0.00
   -7    1   31     -1.31      0.00
   -6    1   31      1.87      0.00
   -5    1   31      0.91      0.00
   -4    1   31      2.70      0.00
   -3    1   31     -1.27      0.00
   -2    1   31      0.95      0.00
   -1    1   31     -1.25      0.00
    0    1   31      0.78      0.00
    1    1   31     -0.34      0.00
    2    1   31      1.13      0.00
    3    1   31     -0.02      0.00
    4    1   31     -0.66      0.00
    5    1   31     -1.32      0.00
    6    1   31     -0.46      0.00
    7    1   31      0.17      0.00
    8    1   31      1.81      0.00
    9    1   31     -2.83      0.00
   10    1   31      1.46      0.00
   11    1   31      1.81      0.00
   12    1   31     -2.07      0.00
  -22    2   31     -1.69      0.00
  -21    2   31     -1.49      0.00
  -20    2   31      2.01      0.00
  -19    2   31     -4.51      0.00
  -18    2   31     -1.70      0.00
  -17    2   31     -4.14      0.00
  -16    2   31     -2.77      0.00
  -15    2   31      2.23      0.00
  -14    2   31      0.36      0.00
  -13    2   31     -0.98      0.00
  -12    2   31      2.21      0.00
  -11    2   31      1.15      0.00
  -10    2   31      2.82      0.00
   -9    2   31     -2.21      0.00
   -8    2   31     -1.45      0.00
   -7    2   31      1.86      0.00
   -6    2   31     -0.12      0.00
   -5    2   31      4.06      0.00
   -4    2   31      0.36      0.00
   -3    2   31     -0.64      0.00
   -2    2   31      1.10      0.00
   -1    2   31      0.63      0.00
    0    2   31      0.78      0.00
    1    2   31     -1.76      0.00
    2    2   31      1.69      0.00
    3    2   31     -0.26      0.00
    4    2   31      0.08      0.00
    5    2   31      3.54      0.00
    6    2   31      1.00      0.00
    7    2   31      0.29      0.00
    8    2   31     -0.87      0.00
    9    2   31     -0.06      0.00
   10    2   31     -2.89      0.00
   11    2   31      0.87      0.00
  -21    3   31     -3.74      0.00
  -20    3   31     -2.19      0.00
  -19    3   31      1.10      0.00
  -18    3   31     -2.28      0.00
  -17    3   31      1.68      0.00
  -16    3   31      1.29      0.00
  -15    3   31      2.39      0.00
  -14    3   31      0.77      0.00
  -13    3   31     -0.69      0.00
  -12    3   31     -1.31      0.00
  -11    3   31     -0.24      0.00
  -10    3   31     -1.00      0.00
   -9    3   31     -0.06      0.00
   -8    3   31      3.24      0.00
   -7    3   31     -1.81      0.00
   -6    3   31     -0.68      0.00
   -5    3   31     -1.81      0.00
   -4    3   31     -0.29      0.00
   -3    3   31     -1.72      0.00
   -2    3   31      0.74      0.00
   -1    3   31      1.94      0.00
    0    3   31      0.22      0.00
    1    3   31      0.00      0.00
    2    3   31      1.60      0.00
    3    3   31     -0.39      0.00
    4    3   31     -0.98      0.00
    5    3   31      2.70      0.00
    6    3   31     -0.24      0.00
    7    3   31     -1.11      0.00
    8    3   31      4.19      0.00
    9    3   31     -0.49      0.00
   10    3   31      0.43      0.00
  -19    4   31      1.40      0.00
  -18    4   31      0.89      0.00
  -17    4   31     -0.28      0.00
  -16    4   31     -0.24      0.00
  -15    4   31     -2.99      0.00
  -14    4   31      3.95      0.00
  -13    4   31      1.33      0.00
  -12    4   31     -0.05      0.00
  -11    4   31      0.30      0.00
  -10    4   31     -1.64      0.00
   -9    4   31     -1.26      0.00
   -8    4   31      1.94      0.00
   -7    4   31     -0.52      0.00
   -6    4   31     -0.77      0.00
   -5    4   31      0.32      0.00
   -4    4   31      0.98      0.00
   -3    4   31     -0.37      0.00
   -2    4   31      0.90      0.00
   -1    4   31     -0.36      0.00
    0    4   31     -1.08      0.00
    1    4   31      1.39      0.00
    2    4   31     -0.45      0.00
    3    4   31     -0.15      0.00
    4    4   31      0.42      0.00
    5    4   31      3.12      0.00
    6    4   31      0.57      0.00
    7    4   31     -1.55      0.00
    8    4   31     -3.45      0.00
    9    4   31     -0.46      0.00
  -17    5   31      1.50      0.00
  -16    5   31     -2.25      0.00
  -15    5   31      3.82      0.00
  -14    5   31     -1.80      0.00
  -13    5   31     -4.64      0.00
  -12    5   31     -0.28      0.00
  -11    5   31     -2.01      0.00
  -10    5   31     -0.10      0.00
   -9    5   31     -1.69      0.00
   -8    5   31     -0.21      0.00
   -7    5   31     -2.46      0.00
   -6    5   31      0.72      0.00
   -5    5   31      0.61      0.00
   -4    5   31     -1.90      0.00
   -3    5   31     -0.08      0.00
   -2    5   31      1.85      0.00
   -1    5   31      0.07      0.00
    0    5   31      2.35      0.00
    1    5   31      0.07      0.00
    2    5   31      0.12      0.00
    3    5   31     -1.32      0.00
    4    5   31     -3.63      0.00
    5    5   31      1.33      0.00
    6    5   31     -0.81      0.00
    7    5   31     -0.70      0.00
  -13    6   31     -1.37      0.00
  -12    6   31      4.27      0.00
  -11    6   31      4.30      0.00
  -10    6   31      0.52      0.00
   -9    6   31      0.70      0.00
   -8    6   31     -0.46      0.00
   -7    6   31      1.31      0.00
   -6    6   31      3.24      0.00
   -5    6   31     -0.41      0.00
   -4    6   31      1.09      0.00
   -3    6   31      0.63      0.00
   -2    6   31      3.02      0.00
   -1    6   31     -1.45      0.00
    0    6   31     -1.69      0.00
    1    6   31      3.51      0.00
    2    6   31     -3.23      0.00
    3    6   31      2.22      0.00
  -22    0   32     -2.77      0.00
  -20    0   32     -2.80      0.00
  -18    0   32      2.05      0.00
  -16    0   32      1.10      0.00
  -14    0   32     -0.03      0.00
  -12    0   32     -3.30      0.00
  -10    0   32     -1.51      0.00
   -8    0   32     -4.53      0.00
   -6    0   32      1.49      0.00
   -4    0   32     -0.72      0.00
   -2    0   32     -1.07      0.00
    0    0   32     -6.27      0.00
    2    0   32     -2.45      0.00
    4    0   32      0.25      0.00
    6    0   32     -1.77      0.00
    8    0   32      0.06      0.00
   10    0   32      5.07      0.00
  -22    1   32      0.64      0.00
  -21    1   32     -0.05      0.00
  -20    1   32      1.27      0.00
  -19    1   32      0.77      0.00
  -18    1   32      0.91      0.00
  -17    1   32      0.11      0.00
  -16    1   32     -2.83      0.00
  -15    1   32     -3.24      0.00
  -14    1   32      0.00      0.00
  -13    1   32     -0.31      0.00
  -12    1   32     -2.16      0.00
  -11    1   32      1.58      0.00
  -10    1   32      1.12      0.00
   -9    1   32      0.79      0.00
   -8    1   32     -0.09      0.00
   -7    1   32     -0.76      0.00
   -6    1   32      1.37      0.00
   -5    1   32      0.51      0.00
   -4    1   32     -0.26      0.00
   -3    1   32     -1.57      0.00
   -2    1   32      0.45      0.00
   -1    1   32     -1.57      0.00
    0    1   32      1.20      0.00
    1    1   32     -1.91      0.00
    2    1   32     -0.49      0.00
    3    1   32     -0.32      0.00
    4    1   32     -0.16      0.00
    5    1   32      0.80      0.00
    6    1   32      2.11      0.00
    7    1   32      2.76      0.00
    8    1   32     -0.75      0.00
    9    1   32      1.48      0.00
   10    1   32      3.59      0.00
   11    1   32     -3.83      0.00
  -21    2   32      1.51      0.00
  -20    2   32     -3.27      0.00
  -19    2   32     -1.88      0.00
  -18    2   32      0.78      0.00
  -17    2   32     -0.59      0.00
  -16    2   32      4.18      0.00
  -15    2   32      1.47      0.00
  -14    2   32     -2.45      0.00
  -13    2   32      2.73      0.00
  -12    2   32     -0.26      0.00
  -11    2   32      0.75      0.00
  -10    2   32     -0.83      0.00
   -9    2   32     -2.49      0.00
   -8    2   32      0.92      0.00
   -7    2   32      0.09      0.00
   -6    2   32      0.96      0.00
   -5    2   32     -0.43      0.00
   -4    2   32     -3.16      0.00
   -3    2   32     -0.85      0.00
   -2    2   32     -1.53      0.00
   -1    2   32      0.13      0.00
    0    2   32     -2.42      0.00
    1    2   32      0.83      0.00
    2    2   32      1.63      0.00
    3    2   32     -1.52      0.00
    4    2   32      3.50      0.00
    5    2   32      1.32      0.00
    6    2   32      1.41      0.00
    7    2   32      0.30      0.00
    8    2   32     -0.81      0.00
    9    2   32     -0.68      0.00
   10    2   32     -0.33      0.00
   11    2   32      1.64      0.00
  -20    3   32      3.82      0.00
  -19    3   32      1.28      0.00
  -18    3   32      4.24      0.00
  -17    3   32      2.55      0.00
  -16    3   32      2.07      0.00
  -15    3   32      0.28      0.00
  -14    3   32     -4.21      0.00
  -13    3   32     -1.80      0.00
  -12    3   32     -0.91      0.00
  -11    3   32      0.72      0.00
  -10    3   32     -1.03      0.00
   -9    3   32      2.38      0.00
   -8    3   32     -0.99      0.00
   -7    3   32     -2.88      0.00
   -6    3   32     -0.49      0.00
   -5    3   32     -1.07      0.00
   -4    3   32     -1.08      0.00
   -3    3   32     -0.95      0.00
   -2    3   32      3.04      0.00
   -1    3   32     -1.75      0.00
    0    3   32      0.49      0.00
    1    3   32     -0.23      0.00
    2    3   32     -1.02      0.00
    3    3   32     -2.05      0.00
    4    3   32      1.54      0.00
    5    3   32      1.04      0.00
    6    3   32     -0.08      0.00
    7    3   32      3.87      0.00
    8    3   32      1.05      0.00
    9    3   32     -1.62      0.00
  -19    4   32      0.94      0.00
  -18    4   32      0.34      0.00
  -17    4   32     -4.17      0.00
  -16    4   32     -3.16      0.00
  -15    4   32      0.18      0.00
  -14    4   32     -0.45      0.00
  -13    4   32     -4.85      0.00
  -12    4   32      1.09      0.00
  -11    4   32     -1.14      0.00
  -10    4   32     -0.22      0.00
   -9    4   32      2.49      0.00
   -8    4   32      1.30      0.00
   -7    4   32     -1.77      0.00
   -6    4   32      1.50      0.00
   -5    4   32      0.51      0.00
   -4    4   32      0.73      0.00
   -3    4   32     -1.45      0.00
   -2    4   32     -1.62      0.00
   -1    4   32     -1.30      0.00
    0    4   32     -0.07      0.00
    1    4   32     -0.34      0.00
    2    4   32     -0.24      0.00
    3    4   32      0.38      0.00
    4    4   32      2.99      0.00
    5    4   32     -0.49      0.00
    6    4   32     -1.76      0.00
    7    4   32     -2.60      0.00
    8    4   32      1.09      0.00
  -16    5   32     -0.32      0.00
  -15    5   32      1.36      0.00
  -14    5   32     -5.13      0.00
  -13    5   32      1.20      0.00
  -12    5   32     -1.54      0.00
  -11    5   32      0.20      0.00
  -10    5   32      1.59      0.00
   -9    5   32      0.50      0.00
   -8    5   32      3.06      0.00
   -7    5   32      0.41      0.00
   -6    5   32      1.59      0.00
   -5    5   32     -0.79      0.00
   -4    5   32      0.00      0.00
   -3    5   32      2.05      0.00
   -2    5   32     -0.33      0.00
   -1    5   32      1.40      0.00
    0    5   32      0.16      0.00
    1    5   32     -1.52      0.00
    2    5   32      0.19      0.00
    3    5   32     -3.99      0.00
    4    5   32      2.47      0.00
    5    5   32      2.49      0.00
  -12    6   32      4.57      0.00
  -11    6   32     -1.11      0.00
  -10    6   32     -1.85      0.00
   -9    6   32      1.02      0.00
   -8    6   32      0.22      0.00
   -7    6   32      3.38      0.00
   -6    6   32      0.19      0.00
   -5    6   32     -0.39      0.00
   -4    6   32      0.22      0.00
   -3    6   32     -0.52      0.00
   -2    6   32      0.28      0.00
   -1    6   32     -3.61      0.00
    0    6   32      3.40      0.00
    1    6   32     -1.09      0.00
  -21    0   33      0.25      0.00
  -19    0   33      4.95      0.00
  -17    0   33      3.17      0.00
  -15    0   33      0.50      0.00
  -13    0   33     -3.66      0.00
  -11    0   33     -2.37      0.00
   -9    0   33     -1.85      0.00
   -7    0   33      4.14      0.00
   -5    0   33      2.24      0.00
   -3    0   33      1.70      0.00
   -1    0   33     -1.55      0.00
    1    0   33      3.65      0.00
    3    0   33      3.01      0.00
    5    0   33     -0.87      0.00
    7    0   33      0.67      0.00
    9    0   33      1.59      0.00
  -21    1   33      1.39      0.00
  -20    1   33     -0.46      0.00
  -19    1   33      0.23      0.00
  -18    1   33     -2.61      0.00
  -17    1   33     -5.01      0.00
  -16    1   33     -0.07      0.00
  -15    1   33     -0.72      0.00
  -14    1   33      3.57      0.00
  -13    1   33     -0.88      0.00
  -12    1   33      2.65      0.00
  -11    1   33      1.58      0.00
  -10    1   33      1.22      0.00
   -9    1   33      0.17      0.00
   -8    1   33     -1.31      0.00
   -7    1   33      0.01      0.00
   -6    1   33      0.51      0.00
   -5    1   33      0.85      0.00
   -4    1   33     -1.33      0.00
   -3    1   33      1.78      0.00
   -2    1   33     -0.12      0.00
   -1    1   33      1.49      0.00
    0    1   33      0.17      0.00
    1    1   33     -1.26      0.00
    2    1   33      3.11      0.00
    3    1   33      1.58      0.00
    4    1   33      0.52      0.00
    5    1   33      1.65      0.00
    6    1   33     -0.62      0.00
    7    1   33     -1.23      0.00
    8    1   33     -1.71      0.00
    9    1   33      3.06      0.00
   10    1   33     -2.73      0.00
  -21    2   33     -0.40      0.00
  -20    2   33     -2.30      0.00
  -19    2   33      3.19      0.00
  -18    2   33     -1.76      0.00
  -17    2   33      5.23      0.00
  -16    2   33     -0.28      0.00
  -15    2   33     -0.73      0.00
  -14    2   33      1.27      0.00
  -13    2   33      1.29      0.00
  -12    2   33     -1.66      0.00
  -11    2   33     -0.43      0.00
  -10    2   33     -3.04      0.00
   -9    2   33     -0.68      0.00
   -8    2   33     -1.03      0.00
   -7    2   33      0.26      0.00
   -6    2   33     -0.93      0.00
   -5    2   33     -1.62      0.00
   -4    2   33     -0.80      0.00
   -3    2   33      1.37      0.00
   -2    2   33      0.52      0.00
   -1    2   33      1.86      0.00
    0    2   33     -0.82      0.00
    1    2   33      4.05      0.00
    2    2   33     -1.63      0.00
    3    2   33      3.23      0.00
    4    2   33      0.73      0.00
    5    2   33      0.08      0.00
    6    2   33      0.05      0.00
    7    2   33     -4.46      0.00
    8    2   33     -1.09      0.00
    9    2   33     -0.20      0.00
   10    2   33      0.56      0.00
  -20    3   33     -1.17      0.00
  -19    3   33      2.73      0.00
  -18    3   33     -2.44      0.00
  -17    3   33     -0.13      0.00
  -16    3   33     -1.03      0.00
  -15    3   33     -3.75      0.00
  -14    3   33      0.61      0.00
  -13    3   33      1.85      0.00
  -12    3   33      0.78      0.00
  -11    3   33      2.01      0.00
  -10    3   33      0.34      0.00
   -9    3   33      0.53      0.00
   -8    3   33     -3.63      0.00
   -7    3   33      1.28      0.00
   -6    3   33      0.59      0.00
   -5    3   33      0.24      0.00
   -4    3   33      0.40      0.00
   -3    3   33      3.97      0.00
   -2    3   33      0.86      0.00
   -1    3   33     -0.61      0.00
    0    3   33      1.15      0.00
    1    3   33     -2.00      0.00
    2    3   33     -2.28      0.00
    3    3   33      1.45      0.00
    4    3   33      0.17      0.00
    5    3   33      2.18      0.00
    6    3   33      0.52      0.00
    7    3   33      0.50      0.00
    8    3   33     -3.86      0.00
  -18    4   33     -3.85      0.00
  -17    4   33     -3.67      0.00
  -16    4   33      2.37      0.00
  -15    4   33      0.44      0.00
  -14    4   33     -3.12      0.00
  -13    4   33      4.69      0.00
  -12    4   33      2.71      0.00
  -11    4   33     -0.65      0.00
  -10    4   33      1.40      0.00
   -9    4   33      0.57      0.00
   -8    4   33     -3.17      0.00
   -7    4   33      1.16      0.00
   -6    4   33      0.34      0.00
   -5    4   33      1.00      0.00
   -4    4   33     -0.20      0.00
   -3    4   33     -0.58      0.00
   -2    4   33      1.46      0.00
   -1    4   33      1.80      0.00
    0    4   33      0.59      0.00
    1    4   33      0.95      0.00
    2    4   33      1.82      0.00
    3    4   33      1.30      0.00
    4    4   33      0.80      0.00
    5    4   33     -4.08      0.00
    6    4   33     -0.69      0.00
    7    4   33     -0.13      0.00
  -15    5   33     -0.36      0.00
  -14    5   33      0.71      0.00
  -13    5   33      1.69      0.00
  -12    5   33      0.22      0.00
  -11    5   33      4.27      0.00
  -10    5   33      1.16      0.00
   -9    5   33      2.58      0.00
   -8    5   33      0.29      0.00
   -7    5   33     -2.84      0.00
   -6    5   33     -0.63      0.00
   -5    5   33      0.43      0.00
   -4    5   33      1.12      0.00
   -3    5   33      0.52      0.00
   -2    5   33      1.08      0.00
   -1    5   33      1.38      0.00
    0    5   33     -2.05      0.00
    1    5   33      0.69      0.00
    2    5   33     -2.48      0.00
    3    5   33      1.48      0.00
    4    5   33      4.36      0.00
  -10    6   33      0.14      0.00
   -9    6   33      1.42      0.00
   -8    6   33     -0.12      0.00
   -7    6   33     -0.10      0.00
   -6    6   33     -2.33      0.00
   -5    6   33     -0.83      0.00
   -4    6   33     -1.74      0.00
   -3    6   33      0.63      0.00
   -2    6   33     -1.64      0.00
   -1    6   33      2.60      0.00
  -20    0   34      4.55      0.00
  -18    0   34      0.10      0.00
  -16    0   34     -4.83      0.00
  -14    0   34     -5.80      0.00
  -12    0   34     -0.49      0.00
  -10    0   34      1.20      0.00
   -8    0   34      3.20      0.00
   -6    0   34      2.41      0.00
   -4    0   34      0.49      0.00
   -2    0   34     -2.29      0.00
    0    0   34      3.08      0.00
    2    0   34     -0.28      0.00
    4    0   34     -0.27      0.00
    6    0   34      2.55      0.00
    8    0   34      0.36      0.00
  -21    1   34     -0.68      0.00
  -20    1   34      1.32      0.00
  -19    1   34     -3.31      0.00
  -18    1   34     -3.63      0.00
  -17    1   34     -0.56      0.00
  -16    1   34      2.69      0.00
  -15    1   34      0.03      0.00
  -14    1   34      2.81      0.00
  -13    1   34     -0.91      0.00
  -12    1   34      1.25      0.00
  -11    1   34     -0.17      0.00
  -10    1   34      1.31      0.00
   -9    1   34     -3.29      0.00
   -8    1   34     -0.69      0.00
   -7    1   34     -0.19      0.00
   -6    1   34      1.88      0.00
   -5    1   34     -0.80      0.00
   -4    1   34     -0.46      0.00
   -3    1   34     -1.22      0.00
   -2    1   34     -0.97      0.00
   -1    1   34     -1.51      0.00
    0    1   34     -1.77      0.00
    1    1   34      0.80      0.00
    2    1   34      3.25      0.00
    3    1   34     -2.80      0.00
    4    1   34      1.21      0.00
    5    1   34     -0.92      0.00
    6    1   34     -0.93      0.00
    7    1   34      1.24      0.00
    8    1   34      1.86      0.00
    9    1   34      0.18      0.00
  -20    2   34      5.27      0.00
  -19    2   34     -0.10      0.00
  -18    2   34      4.92      0.00
  -17    2   34      1.67      0.00
  -16    2   34     -2.77      0.00
  -15    2   34      1.36      0.00
  -14    2   34      0.99      0.00
  -13    2   34     -1.95      0.00
  -12    2   34     -1.82      0.00
  -11    2   34     -2.07      0.00
  -10    2   34      0.00      0.00
   -9    2   34      0.26      0.00
   -8    2   34     -0.62      0.00
   -7    2   34      1.59      0.00
   -6    2   34     -1.28      0.00
   -5    2   34      0.50      0.00
   -4    2   34      0.47      0.00
   -3    2   34      1.07      0.00
   -2    2   34     -0.33      0.00
   -1    2   34     -0.52      0.00
    0    2   34     -0.37      0.00
    1    2   34      0.50      0.00
    2    2   34      0.25      0.00
    3    2   34     -0.34      0.00
    4    2   34     -2.29      0.00
    5    2   34      0.42      0.00
    6    2   34     -4.18      0.00
    7    2   34     -1.64      0.00
    8    2   34      2.96      0.00
  -19    3   34     -0.20      0.00
  -18    3   34     -3.44      0.00
  -17    3   34      1.58      0.00
  -16    3   34     -3.28      0.00
  -15    3   34      0.37      0.00
  -14    3   34      1.76      0.00
  -13    3   34     -3.31      0.00
  -12    3   34      2.91      0.00
  -11    3   34      0.90      0.00
  -10    3   34     -0.43      0.00
   -9    3   34     -1.50      0.00
   -8    3   34      2.73      0.00
   -7    3   34      3.10      0.00
   -6    3   34     -0.22      0.00
   -5    3   34     -0.26      0.00
   -4    3   34      2.13      0.00
   -3    3   34     -0.05      0.00
   -2    3   34     -2.25      0.00
   -1    3   34     -0.63      0.00
    0    3   34     -2.20      0.00
    1    3   34     -1.81      0.00
    2    3   34      1.20      0.00
    3    3   34      1.71      0.00
    4    3   34      1.78      0.00
    5    3   34      2.76      0.00
    6    3   34     -2.69      0.00
    7    3   34     -0.68      0.00
  -17    4   34      3.13      0.00
  -16    4   34      1.53      0.00
  -15    4   34     -2.43      0.00
  -14    4   34      4.87      0.00
  -13    4   34      3.26      0.00
  -12    4   34     -3.33      0.00
  -11    4   34     -0.55      0.00
  -10    4   34     -0.15      0.00
   -9    4   34     -1.75      0.00
   -8    4   34      0.83      0.00
   -7    4   34      1.95      0.00
   -6    4   34     -0.23      0.00
   -5    4   34      0.95      0.00
   -4    4   34     -1.49      0.00
   -3    4   34      1.11      0.00
   -2    4   34     -0.21      0.00
   -1    4   34     -0.51      0.00
    0    4   34     -0.52      0.00
    1    4   34      2.40      0.00
    2    4   34     -0.45      0.00
    3    4   34      0.42      0.00
    4    4   34     -3.36      0.00
    5    4   34     -0.95      0.00
  -14    5   34      0.21      0.00
  -13    5   34     -0.33      0.00
  -12    5   34      2.76      0.00
  -11    5   34      0.95      0.00
  -10    5   34     -0.28      0.00
   -9    5   34      0.35      0.00
   -8    5   34     -4.48      0.00
   -7    5   34     -0.58      0.00
   -6    5   34      1.63      0.00
   -5    5   34      0.52      0.00
   -4    5   34     -0.98      0.00
   -3    5   34     -0.83      0.00
   -2    5   34      0.74      0.00
   -1    5   34     -4.34      0.00
    0    5   34      0.34      0.00
    1    5   34     -1.58      0.00
    2    5   34      0.50      0.00
  -19    0   35     -0.51      0.00
  -17    0   35     -2.17      0.00
  -15    0   35     -0.33      0.00
  -13    0   35      3.82      0.00
  -11    0   35      1.95      0.00
   -9    0   35      1.80      0.00
   -7    0   35      1.33      0.00
   -5    0   35     -2.56      0.00
   -3    0   35     -2.62      0.00
   -1    0   35      3.76      0.00
    1    0   35     -1.12      0.00
    3    0   35      2.04      0.00
    5    0   35     -0.39      0.00
    7    0   35     -4.75      0.00
  -20    1   35     -1.57      0.00
  -19    1   35     -5.51      0.00
  -18    1   35      2.59      0.00
  -17    1   35      2.29      0.00
  -16    1   35      2.70      0.00
  -15    1   35      2.03      0.00
  -14    1   35     -1.33      0.00
  -13    1   35     -1.30      0.00
  -12    1   35     -1.26      0.00
  -11    1   35      0.96      0.00
  -10    1   35     -3.69      0.00
   -9    1   35     -3.17      0.00
   -8    1   35      1.74      0.00
   -7    1   35      1.13      0.00
   -6    1   35      1.58      0.00
   -5    1   35     -3.62      0.00
   -4    1   35     -0.05      0.00
   -3    1   35     -1.99      0.00
   -2    1   35      1.35      0.00
   -1    1   35     -1.52      0.00
    0    1   35      1.76      0.00
    1    1   35      1.65      0.00
    2    1   35     -1.48      0.00
    3    1   35     -1.36      0.00
    4    1   35      0.74      0.00
    5    1   35     -1.98      0.00
    6    1   35      0.92      0.00
    7    1   35      0.56      0.00
    8    1   35     -0.96      0.00
  -19    2   35     -1.94      0.00
  -18    2   35      0.77      0.00
  -17    2   35     -4.83      0.00
  -16    2   35     -1.16      0.00
  -15    2   35      4.26      0.00
  -14    2   35     -1.28      0.00
  -13    2   35     -3.56      0.00
  -12    2   35     -1.14      0.00
  -11    2   35      3.28      0.00
  -10    2   35      1.47      0.00
   -9    2   35     -1.31      0.00
   -8    2   35      2.00      0.00
   -7    2   35      1.53      0.00
   -6    2   35      0.07      0.00
   -5    2   35      1.45      0.00
   -4    2   35      1.05      0.00
   -3    2   35      0.64      0.00
   -2    2   35      0.48      0.00
   -1    2   35     -0.74      0.00
    0    2   35      1.21      0.00
    1    2   35      0.34      0.00
    2    2   35     -1.75      0.00
    3    2   35     -3.76      0.00
    4    2   35      1.65      0.00
    5    2   35     -3.71      0.00
    6    2   35     -1.53      0.00
    7    2   35      2.94      0.00
  -18    3   35      1.71      0.00
  -17    3   35     -1.19      0.00
  -16    3   35      0.74      0.00
  -15    3   35      0.73      0.00
  -14    3   35     -3.74      0.00
  -13    3   35      2.46      0.00
  -12    3   35      2.91      0.00
  -11    3   35     -2.48      0.00
  -10    3   35     -2.42      0.00
   -9    3   35      2.20      0.00
   -8    3   35      2.79      0.00
   -7    3   35     -2.26      0.00
   -6    3   35     -1.68      0.00
   -5    3   35      1.47      0.00
   -4    3   35      1.33      0.00
   -3    3   35     -0.59      0.00
   -2    3   35      1.20      0.00
   -1    3   35     -0.78      0.00
    0    3   35      1.01      0.00
    1    3   35      2.19      0.00
    2    3   35      2.83      0.00
    3    3   35      1.38      0.00
    4    3   35      4.22      0.00
    5    3   35     -4.36      0.00
    6    3   35     -1.31      0.00
  -16    4   35      0.20      0.00
  -15    4   35      4.02      0.00
  -14    4   35      3.57      0.00
  -13    4   35     -4.47      0.00
  -12    4   35     -0.12      0.00
  -11    4   35     -1.09      0.00
  -10    4   35     -0.48      0.00
   -9    4   35     -1.03      0.00
   -8    4   35      1.62      0.00
   -7    4   35     -2.11      0.00
   -6    4   35      0.58      0.00
   -5    4   35     -1.32      0.00
   -4    4   35     -0.03      0.00
   -3    4   35      0.40      0.00
   -2    4   35     -1.88      0.00
   -1    4   35      1.47      0.00
    0    4   35      1.16      0.00
    1    4   35     -0.16      0.00
    2    4   35     -1.85      0.00
    3    4   35     -1.82      0.00
    4    4   35     -1.64      0.00
  -12    5   35      0.60      0.00
  -11    5   35     -2.55      0.00
  -10    5   35      0.03      0.00
   -9    5   35     -4.23      0.00
   -8    5   35     -1.04      0.00
   -7    5   35      1.60      0.00
   -6    5   35      0.77      0.00
   -5    5   35     -1.36      0.00
   -4    5   35     -0.55      0.00
   -3    5   35      1.19      0.00
   -2    5   35     -1.68      0.00
   -1    5   35     -0.42      0.00
    0    5   35      1.92      0.00
  -18    0   36     -5.33      0.00
  -16    0   36     -2.78      0.00
  -14    0   36      3.73      0.00
  -12    0   36      1.35      0.00
  -10    0   36      0.45      0.00
   -8    0   36     -0.39      0.00
   -6    0   36     -3.65      0.00
   -4    0   36     -2.88      0.00
   -2    0   36      1.10      0.00
    0    0   36     -3.71      0.00
    2    0   36      2.03      0.00
    4    0   36     -2.51      0.00
    6    0   36     -1.59      0.00
  -19    1   36      2.12      0.00
  -18    1   36      5.03      0.00
  -17    1   36     -0.24      0.00
  -16    1   36      3.27      0.00
  -15    1   36     -5.13      0.00
  -14    1   36     -0.11      0.00
  -13    1   36      0.84      0.00
  -12    1   36      1.95      0.00
  -11    1   36     -0.47      0.00
  -10    1   36     -1.82      0.00
   -9    1   36      3.24      0.00
   -8    1   36      3.02      0.00
   -7    1   36      1.37      0.00
   -6    1   36     -3.52      0.00
   -5    1   36     -1.71      0.00
   -4    1   36      0.19      0.00
   -3    1   36     -0.07      0.00
   -2    1   36      0.39      0.00
   -1    1   36     -0.69      0.00
    0    1   36      0.31      0.00
    1    1   36     -0.35      0.00
    2    1   36     -1.07      0.00
    3    1   36      1.99      0.00
    4    1   36     -1.38      0.00
    5    1   36      2.19      0.00
    6    1   36      0.51      0.00
    7    1   36      0.96      0.00
  -18    2   36     -3.73      0.00
  -17    2   36      0.45      0.00
  -16    2   36      2.90      0.00
  -15    2   36      3.19      0.00
  -14    2   36     -8.87      0.00
  -13    2   36     -0.18      0.00
  -12    2   36      8.28      0.00
  -11    2   36      2.69      0.00
  -10    2   36     -2.58      0.00
   -9    2   36      1.42      0.00
   -8    2   36      4.48      0.00
   -7    2   36     -0.59      0.00
   -6    2   36      0.67      0.00
   -5    2   36     -0.08      0.00
   -4    2   36      0.03      0.00
   -3    2   36      0.08      0.00
   -2    2   36     -1.12      0.00
   -1    2   36     -0.70      0.00
    0    2   36      1.40      0.00
    1    2   36     -2.09      0.00
    2    2   36     -2.41      0.00
    3    2   36      3.51      0.00
    4    2   36     -0.41      0.00
    5    2   36     -0.55      0.00
    6    2   36      4.05      0.00
  -17    3   36      0.50      0.00
  -16    3   36      0.38      0.00
  -15    3   36     -4.14      0.00
  -14    3   36      1.56      0.00
  -13    3   36      4.01      0.00
  -12    3   36     -3.68      0.00
  -11    3   36     -1.76      0.00
  -10    3   36      0.91      0.00
   -9    3   36      3.27      0.00
   -8    3   36     -3.21      0.00
   -7    3   36     -3.13      0.00
   -6    3   36      1.06      0.00
   -5    3   36      0.75      0.00
   -4    3   36      0.17      0.00
   -3    3   36     -0.62      0.00
   -2    3   36     -1.33      0.00
   -1    3   36     -0.42      0.00
    0    3   36      2.19      0.00
    1    3   36      0.86      0.00
    2    3   36      0.08      0.00
    3    3   36      2.79      0.00
    4    3   36     -3.86      0.00
    5    3   36     -4.20      0.00
  -14    4   36     -5.09      0.00
  -13    4   36      0.70      0.00
  -12    4   36     -0.17      0.00
  -11    4   36     -0.56      0.00
  -10    4   36      1.18      0.00
   -9    4   36      1.54      0.00
   -8    4   36      0.50      0.00
   -7    4   36     -0.19      0.00
   -6    4   36     -0.18      0.00
   -5    4   36     -1.66      0.00
   -4    4   36     -0.70      0.00
   -3    4   36     -2.56      0.00
   -2    4   36      0.15      0.00
   -1    4   36      1.02      0.00
    0    4   36     -1.66      0.00
    1    4   36     -2.87      0.00
    2    4   36     -0.41      0.00
   -9    5   36     -0.96      0.00
   -8    5   36      3.14      0.00
   -7    5   36      1.43      0.00
   -6    5   36      0.13      0.00
   -5    5   36      0.04      0.00
   -4    5   36      0.73      0.00
   -3    5   36      0.30      0.00
  -17    0   37      3.67      0.00
  -15    0   37      6.71      0.00
  -13    0   37     -1.35      0.00
  -11    0   37     -2.38      0.00
   -9    0   37     -0.59      0.00
   -7    0   37     -2.24      0.00
   -5    0   37     -1.20      0.00
   -3    0   37      2.83      0.00
   -1    0   37     -0.87      0.00
    1    0   37      2.14      0.00
    3    0   37     -4.54      0.00
    5    0   37     -1.14      0.00
  -18    1   37      1.88      0.00
  -17    1   37     -0.61      0.00
  -16    1   37     -1.18      0.00
  -15    1   37     -2.46      0.00
  -14    1   37      6.11      0.00
  -13    1   37     -1.68      0.00
  -12    1   37     -0.19      0.00
  -11    1   37     -1.47      0.00
  -10    1   37      1.79      0.00
   -9    1   37      2.05      0.00
   -8    1   37     -0.63      0.00
   -7    1   37     -2.80      0.00
   -6    1   37     -3.48      0.00
   -5    1   37      2.95      0.00
   -4    1   37      0.43      0.00
   -3    1   37      2.12      0.00
   -2    1   37      1.14      0.00
   -1    1   37      0.04      0.00
    0    1   37      1.68      0.00
    1    1   37      1.45      0.00
    2    1   37      0.74      0.00
    3    1   37     -0.84      0.00
    4    1   37     -0.38      0.00
    5    1   37      0.51      0.00
    6    1   37     -1.91      0.00
  -17    2   37      4.48      0.00
  -16    2   37      1.70      0.00
  -15    2   37     -8.17      0.00
  -14    2   37     -4.14      0.00
  -13    2   37     10.78      0.00
  -12    2   37      0.64      0.00
  -11    2   37     -9.22      0.00
  -10    2   37     -1.90      0.00
   -9    2   37      3.59      0.00
   -8    2   37     -1.62      0.00
   -7    2   37     -1.96      0.00
   -6    2   37     -0.23      0.00
   -5    2   37      0.71      0.00
   -4    2   37      0.35      0.00
   -3    2   37      1.36      0.00
   -2    2   37     -2.13      0.00
   -1    2   37      2.34      0.00
    0    2   37     -0.12      0.00
    1    2   37     -1.31      0.00
    2    2   37      4.00      0.00
    3    2   37      1.18      0.00
    4    2   37     -1.39      0.00
    5    2   37      2.62      0.00
  -15    3   37      0.54      0.00
  -14    3   37      5.54      0.00
  -13    3   37     -2.52      0.00
  -12    3   37     -0.86      0.00
  -11    3   37      0.06      0.00
  -10    3   37      1.19      0.00
   -9    3   37     -2.22      0.00
   -8    3   37     -4.00      0.00
   -7    3   37      0.86      0.00
   -6    3   37      1.88      0.00
   -5    3   37      0.32      0.00
   -4    3   37      0.83      0.00
   -3    3   37     -3.42      0.00
   -2    3   37      0.17      0.00
   -1    3   37      0.91      0.00
    0    3   37     -0.89      0.00
    1    3   37     -0.93      0.00
    2    3   37     -0.60      0.00
    3    3   37     -1.51      0.00
  -13    4   37      1.84      0.00
  -12    4   37     -2.49      0.00
  -11    4   37      1.56      0.00
  -10    4   37      1.07      0.00
   -9    4   37      0.80      0.00
   -8    4   37     -0.87      0.00
   -7    4   37     -0.59      0.00
   -6    4   37     -0.89      0.00
   -5    4   37      0.12      0.00
   -4    4   37      0.00      0.00
   -3    4   37      1.20      0.00
   -2    4   37      2.82      0.00
   -1    4   37     -1.36      0.00
    0    4   37     -1.57      0.00
  -16    0   38      0.45      0.00
  -14    0   38     -3.93      0.00
  -12    0   38     -1.02      0.00
  -10    0   38      2.50      0.00
   -8    0   38      0.03      0.00
   -6    0   38      0.82      0.00
   -4    0   38      3.07      0.00
   -2    0   38     -1.21      0.00
    0    0   38      0.06      0.00
    2    0   38     -2.86      0.00
    4    0   38      2.80      0.00
  -17    1   38     -4.55      0.00
  -16    1   38     -0.10      0.00
  -15    1   38      4.46      0.00
  -14    1   38     -1.91      0.00
  -13    1   38     -1.65      0.00
  -12    1   38      1.93      0.00
  -11    1   38      1.60      0.00
  -10    1   38      1.64      0.00
   -9    1   38     -1.44      0.00
   -8    1   38     -1.03      0.00
   -7    1   38     -2.13      0.00
   -6    1   38      3.02      0.00
   -5    1   38      2.53      0.00
   -4    1   38      1.22      0.00
   -3    1   38      1.52      0.00
   -2    1   38     -0.35      0.00
   -1    1   38      0.06      0.00
    0    1   38      2.93      0.00
    1    1   38     -0.49      0.00
    2    1   38     -1.24      0.00
    3    1   38     -0.37      0.00
    4    1   38      0.99      0.00
  -16    2   38     -8.17      0.00
  -15    2   38     -2.92      0.00
  -14    2   38      9.90      0.00
  -13    2   38      2.33      0.00
  -12    2   38    -11.08      0.00
  -11    2   38     -0.41      0.00
  -10    2   38      4.95      0.00
   -9    2   38      1.60      0.00
   -8    2   38     -3.34      0.00
   -7    2   38      0.93      0.00
   -6    2   38     -0.01      0.00
   -5    2   38     -0.31      0.00
   -4    2   38     -1.02      0.00
   -3    2   38     -2.24      0.00
   -2    2   38     -2.59      0.00
   -1    2   38      2.45      0.00
    0    2   38     -1.79      0.00
    1    2   38      2.06      0.00
    2    2   38      1.38      0.00
    3    2   38     -3.21      0.00
  -14    3   38      1.29      0.00
  -13    3   38     -0.62      0.00
  -12    3   38      0.83      0.00
  -11    3   38      1.22      0.00
  -10    3   38      1.20      0.00
   -9    3   38     -0.36      0.00
   -8    3   38      0.90      0.00
   -7    3   38      3.26      0.00
   -6    3   38     -0.18      0.00
   -5    3   38      0.09      0.00
   -4    3   38     -4.87      0.00
   -3    3   38     -1.78      0.00
   -2    3   38      0.82      0.00
   -1    3   38     -1.13      0.00
    0    3   38     -1.04      0.00
    1    3   38      0.25      0.00
  -10    4   38      1.20      0.00
   -9    4   38     -0.77      0.00
   -8    4   38     -1.09      0.00
   -7    4   38     -0.37      0.00
   -6    4   38      0.54      0.00
   -5    4   38      0.51      0.00
   -4    4   38      0.44      0.00
   -3    4   38      2.03      0.00
  -15    0   39     -0.94      0.00
  -13    0   39     -1.02      0.00
  -11    0   39      2.69      0.00
   -9    0   39     -0.97      0.00
   -7    0   39      0.05      0.00
   -5    0   39      2.00      0.00
   -3    0   39     -0.12      0.00
   -1    0   39      0.12      0.00
    1    0   39     -0.78      0.00
    3    0   39      1.82      0.00
  -15    1   39     -4.23      0.00
  -14    1   39     -3.61      0.00
  -13    1   39      1.86      0.00
  -12    1   39     -1.28      0.00
  -11    1   39     -1.99      0.00
  -10    1   39     -3.17      0.00
   -9    1   39     -2.62      0.00
   -8    1   39     -0.11      0.00
   -7    1   39      0.17      0.00
   -6    1   39      3.60      0.00
   -5    1   39     -0.01      0.00
   -4    1   39      1.65      0.00
   -3    1   39     -0.89      0.00
   -2    1   39     -0.75      0.00
   -1    1   39      1.55      0.00
    0    1   39     -0.35      0.00
    1    1   39     -2.63      0.00
    2    1   39     -1.10      0.00
  -14    2   39     -0.05      0.00
  -13    2   39     -8.52      0.00
  -12    2   39     -0.44      0.00
  -11    2   39      5.10      0.00
  -10    2   39      1.65      0.00
   -9    2   39     -3.08      0.00
   -8    2   39     -0.61      0.00
   -7    2   39      0.27      0.00
   -6    2   39     -1.48      0.00
   -5    2   39     -1.31      0.00
   -4    2   39     -0.72      0.00
   -3    2   39     -3.27      0.00
   -2    2   39      3.39      0.00
   -1    2   39      0.07      0.00
    0    2   39     -0.22      0.00
    1    2   39     -0.43      0.00
  -12    3   39     -1.68      0.00
  -11    3   39      1.81      0.00
  -10    3   39     -1.18      0.00
   -9    3   39     -0.88      0.00
   -8    3   39      0.81      0.00
   -7    3   39      0.25      0.00
   -6    3   39     -0.44      0.00
   -5    3   39     -2.53      0.00
   -4    3   39     -0.70      0.00
   -3    3   39      3.50      0.00
   -2    3   39      1.06      0.00
   -1    3   39      1.29      0.00
  -14    0   40     -0.68      0.00
  -12    0   40      3.94      0.00
  -10    0   40     -1.99      0.00
   -8    0   40     -0.10      0.00
   -6    0   40      1.50      0.00
   -4    0   40     -0.74      0.00
   -2    0   40     -1.36      0.00
    0    0   40      0.92      0.00
  -14    1   40      5.01      0.00
  -13    1   40     -0.45      0.00
  -12    1   40     -0.60      0.00
  -11    1   40     -1.18      0.00
  -10    1   40     -1.18      0.00
   -9    1   40      2.87      0.00
   -8    1   40      0.06      0.00
   -7    1   40      3.00      0.00
   -6    1   40      0.13      0.00
   -5    1   40     -1.15      0.00
   -4    1   40     -1.62      0.00
   -3    1   40     -3.94      0.00
   -2    1   40     -0.62      0.00
   -1    1   40     -0.44      0.00
    0    1   40     -2.85      0.00
  -12    2   40      5.87      0.00
  -11    2   40      1.81      0.00
  -10    2   40      0.62      0.00
   -9    2   40     -1.23      0.00
   -8    2   40      1.90      0.00
   -7    2   40     -1.59      0.00
   -6    2   40     -0.54      0.00
   -5    2   40      0.76      0.00
   -4    2   40     -2.54      0.00
   -3    2   40      2.07      0.00
   -2    2   40      2.40      0.00
  -11    0   41     -3.73      0.00
   -9    0   41     -0.69      0.00
   -5    0   41     -1.72      0.00
   -3    0   41     -0.77      0.00
  -11    1   41     -1.90      0.00
  -10    1   41      3.32      0.00
   -9    1   41      0.83      0.00
   -8    1   41      0.02      0.00
   -7    1   41      1.53      0.00
   -6    1   41     -3.33      0.00
   -5    1   41     -1.05      0.00
   -4    1   41     -2.59      0.00
   -3    1   41     -0.79      0.00
   -8    2   41     -1.14      0.00
   -7    2   41     -0.52      0.00
   -6    2   41      2.40      0.00
   25    4    0     -3.68      0.00
   22    6    0     -0.51      0.00
   20    7    0      2.59      0.00
   17    8    0     -0.98      0.00
   13    9    0      1.64      0.00
    6   10    0     -0.11      0.00
    7   10    0     -0.11      0.00
  -27    0    1      5.04      0.00
    1    0    1   -274.71      0.00
  -27    1    1     -1.91      0.00
   26    2    1     -0.62      0.00
  -26    3    1     -1.31      0.00
  -25    4    1     -1.84      0.00
  -22    6    1     -1.15      0.00
  -20    7    1     -2.21      0.00
  -17    8    1      2.13      0.00
   17    8    1     -4.32      0.00
  -13    9    1      1.51      0.00
   13    9    1     -4.77      0.00
   -7   10    1      0.78      0.00
   -6   10    1      3.45      0.00
    6   10    1     -1.29      0.00
    7   10    1      0.58      0.00
    0    0    2   -254.62      0.00
  -27    1    2      0.09      0.00
   26    2    2      0.79      0.00
  -26    3    2     -0.25      0.00
  -25    4    2     -5.06      0.00
  -24    5    2     -0.14      0.00
   23    5    2      0.75      0.00
  -22    6    2      4.17      0.00
  -20    7    2      3.26      0.00
   19    7    2      1.67      0.00
  -17    8    2     -2.67      0.00
  -13    9    2     -3.28      0.00
   13    9    2      0.50      0.00
   -7   10    2      2.80      0.00
   -6   10    2     -4.26      0.00
    5   10    2     -0.61      0.00
    6   10    2     -1.18      0.00
  -27    1    3     -1.17      0.00
   26    1    3     -3.19      0.00
  -27    2    3     -0.64      0.00
   26    2    3     -1.34      0.00
  -26    3    3      1.87      0.00
   25    3    3      0.66      0.00
  -25    4    3      0.52      0.00
   24    4    3      2.58      0.00
  -24    5    3      1.24      0.00
   23    5    3      0.16      0.00
  -22    6    3     -0.23      0.00
   21    6    3     -0.52      0.00
  -20    7    3      2.73      0.00
   19    7    3     -0.44      0.00
  -17    8    3     -0.48      0.00
   16    8    3      0.46      0.00
  -13    9    3     -5.94      0.00
   12    9    3     -1.00      0.00
   -7   10    3     -1.16      0.00
   -6   10    3     -3.06      0.00
    5   10    3     -0.99      0.00
    6   10    3      3.79      0.00
   26    0    4     -3.38      0.00
   26    1    4      2.98      0.00
  -27    2    4      0.93      0.00
  -26    3    4     -1.43      0.00
   25    3    4     -2.09      0.00
   24    4    4      2.27      0.00
  -24    5    4     -1.39      0.00
   21    6    4      0.64      0.00
  -20    7    4     -2.63      0.00
   19    7    4     -1.48      0.00
   16    8    4      5.15      0.00
  -13    9    4      4.90      0.00
   12    9    4      3.26      0.00
   -7   10    4     -3.54      0.00
   -6   10    4      3.54      0.00
   -5   10    4     -0.52      0.00
    4   10    4      0.46      0.00
    5   10    4      1.26      0.00
    6   10    4      1.27      0.00
  -27    2    5     -0.30      0.00
  -24    5    5      0.48      0.00
   21    6    5     -1.23      0.00
  -20    7    5     -5.30      0.00
   16    8    5      0.27      0.00
  -13    9    5      9.12      0.00
   12    9    5      1.26      0.00
   -7   10    5      3.47      0.00
   -6   10    5      0.44      0.00
   -5   10    5     -1.73      0.00
    4   10    5     -1.45      0.00
    5   10    5     -0.27      0.00
  -27    2    6      0.06      0.00
   25    2    6      0.45      0.00
  -24    5    6      1.75      0.00
   22    5    6      1.05      0.00
   18    7    6     -1.62      0.00
  -13    9    6     -1.20      0.00
   11    9    6      0.46      0.00
   -7   10    6      1.21      0.00
   -6   10    6     -3.91      0.00
   -5   10    6      2.47      0.00
   -4   10    6     -2.08      0.00
    3   10    6     -3.22      0.00
    4   10    6     -2.80      0.00
    5   10    6     -0.79      0.00
   25    1    7      1.18      0.00
  -27    2    7     -1.51      0.00
   25    2    7     -3.07      0.00
   24    3    7     -0.09      0.00
   23    4    7     -3.96      0.00
  -24    5    7     -1.07      0.00
   22    5    7     -0.01      0.00
   20    6    7      0.65      0.00
   18    7    7      0.31      0.00
   15    8    7     -0.01      0.00
  -13    9    7     -2.25      0.00
   11    9    7     -0.27      0.00
   -6   10    7      2.88      0.00
   -5   10    7     -0.02      0.00
   -4   10    7     -0.19      0.00
   -3   10    7      2.66      0.00
    2   10    7     -3.12      0.00
    3   10    7     -5.34      0.00
    4   10    7      1.70      0.00
  -28    0    8      3.47      0.00
   25    1    8     -0.64      0.00
  -27    2    8      5.11      0.00
   24    3    8     -3.49      0.00
   23    4    8     -3.97      0.00
   20    6    8     -0.37      0.00
   15    8    8     -2.69      0.00
  -13    9    8      2.75      0.00
   11    9    8     -1.30      0.00
   -6   10    8      0.75      0.00
   -5   10    8     -2.30      0.00
   -4   10    8      3.68      0.00
   -3   10    8     -2.45      0.00
   -2   10    8     -0.88      0.00
   -1   10    8      6.24      0.00
    0   10    8      1.73      0.00
    1   10    8     -1.26      0.00
    2   10    8     -4.26      0.00
    3   10    8      0.56      0.00
   24    2    9      0.49      0.00
   21    5    9     -4.64      0.00
   17    7    9      1.49      0.00
   14    8    9     -2.68      0.00
  -13    9    9     -2.13      0.00
   10    9    9      2.14      0.00
   -5   10    9      1.43      0.00
   -4   10    9     -0.64      0.00
   -3   10    9     -3.52      0.00
   -2   10    9      3.49      0.00
   -1   10    9     -0.84      0.00
    0   10    9     -2.64      0.00
    1   10    9     -2.68      0.00
    2   10    9      0.44      0.00
  -28    0   10     -4.97      0.00
   24    2   10      2.38      0.00
   23    3   10     -1.19      0.00
   22    4   10     -1.35      0.00
   21    5   10      0.51      0.00
   19    6   10      0.94      0.00
   17    7   10      0.23      0.00
  -17    8   10     -1.21      0.00
   14    8   10     -2.28      0.00
  -13    9   10     -3.12      0.00
   10    9   10      1.51      0.00
   -5   10   10      0.53      0.00
   -4   10   10     -1.62      0.00
   -3   10   10      2.28      0.00
   -2   10   10      1.64      0.00
   -1   10   10     -1.75      0.00
    0   10   10      1.13      0.00
    1   10   10     -0.04      0.00
   24    1   11      3.46      0.00
   23    3   11      3.47      0.00
   22    4   11      4.24      0.00
   19    6   11      1.29      0.00
  -20    7   11      2.00      0.00
  -17    8   11      1.43      0.00
  -13    9   11      2.02      0.00
    9    9   11      0.79      0.00
   -3   10   11     -0.21      0.00
   -2   10   11     -2.77      0.00
   -1   10   11      0.01      0.00
  -28    0   12     -1.92      0.00
   23    2   12     -0.99      0.00
  -24    5   12     -0.50      0.00
   20    5   12      2.99      0.00
  -20    7   12      1.78      0.00
   16    7   12     -0.11      0.00
  -17    8   12     -0.58      0.00
   13    8   12      0.45      0.00
  -13    9   12      0.70      0.00
  -12    9   12     -0.91      0.00
    8    9   12     -0.37      0.00
    9    9   12     -2.94      0.00
  -27    2   13      0.81      0.00
   23    2   13      0.87      0.00
   22    3   13     -1.04      0.00
   21    4   13      2.96      0.00
  -24    5   13      8.04      0.00
   20    5   13     -0.76      0.00
   18    6   13     -2.04      0.00
  -20    7   13     -2.57      0.00
   16    7   13      1.78      0.00
  -17    8   13     -0.19      0.00
  -12    9   13      1.55      0.00
    8    9   13     -0.12      0.00
  -28    0   14      0.71      0.00
   23    1   14     -3.67      0.00
  -27    2   14     -3.25      0.00
   22    3   14      0.82      0.00
   21    4   14      0.23      0.00
  -24    5   14     -0.06      0.00
  -22    6   14     -1.47      0.00
  -20    7   14     -1.69      0.00
   15    7   14      0.06      0.00
  -17    8   14     -0.92      0.00
   12    8   14      0.07      0.00
  -12    9   14     -0.04      0.00
    7    9   14     -0.16      0.00
  -27    2   15     -2.48      0.00
   22    2   15     -0.60      0.00
  -24    5   15     -3.17      0.00
   19    5   15      1.85      0.00
  -22    6   15     -1.92      0.00
   17    6   15      0.15      0.00
  -20    7   15      2.14      0.00
   15    7   15      1.75      0.00
   11    8   15      0.54      0.00
  -12    9   15     -0.02      0.00
  -11    9   15     -1.54      0.00
    6    9   15      1.23      0.00
   22    0   16      3.19      0.00
   22    1   16      1.23      0.00
  -27    2   16      1.27      0.00
   21    3   16      1.43      0.00
   20    4   16     -0.43      0.00
  -24    5   16      3.17      0.00
  -22    6   16     -0.77      0.00
   14    7   16      2.52      0.00
  -16    8   16      1.36      0.00
   11    8   16      0.23      0.00
  -11    9   16     -0.36      0.00
  -10    9   16      2.74      0.00
    5    9   16      0.54      0.00
    6    9   16      0.69      0.00
  -27    2   17      1.93      0.00
   21    2   17      1.76      0.00
  -26    3   17      2.29      0.00
  -25    4   17      4.50      0.00
  -24    5   17      1.81      0.00
   18    5   17      2.13      0.00
  -22    6   17      1.58      0.00
   16    6   17      2.33      0.00
  -19    7   17      1.90      0.00
  -16    8   17     -2.61      0.00
   10    8   17      2.00      0.00
  -10    9   17     -1.78      0.00
    4    9   17      0.03      0.00
    5    9   17      0.67      0.00
  -27    1   18     -2.13      0.00
   21    1   18      3.16      0.00
  -27    2   18      2.08      0.00
  -26    3   18      0.29      0.00
   20    3   18      2.27      0.00
  -25    4   18      2.44      0.00
   19    4   18      1.20      0.00
  -22    6   18      0.62      0.00
  -19    7   18      0.21      0.00
   13    7   18      1.06      0.00
  -15    8   18      0.48      0.00
    9    8   18     -1.60      0.00
  -10    9   18     -1.01      0.00
   -9    9   18      1.93      0.00
   -8    9   18      2.37      0.00
    3    9   18     -1.99      0.00
    4    9   18      1.31      0.00
  -27    0   19      2.32      0.00
   21    0   19     -1.49      0.00
  -27    1   19      1.19      0.00
   20    2   19     -3.61      0.00
  -26    3   19      0.43      0.00
  -25    4   19     -2.97      0.00
   17    5   19     -2.08      0.00
   15    6   19     -2.24      0.00
  -19    7   19      1.90      0.00
   12    7   19     -1.10      0.00
  -15    8   19      0.50      0.00
    9    8   19      0.28      0.00
   -9    9   19      0.78      0.00
   -8    9   19      1.13      0.00
   -7    9   19     -4.10      0.00
    1    9   19      1.80      0.00
    2    9   19     -1.60      0.00
  -27    1   20      2.27      0.00
   20    1   20      2.89      0.00
  -26    3   20      0.11      0.00
   19    3   20     -0.37      0.00
   18    4   20      2.63      0.00
  -23    5   20      1.03      0.00
  -21    6   20      0.80      0.00
   14    6   20     -1.28      0.00
   12    7   20      3.99      0.00
  -15    8   20      0.42      0.00
  -14    8   20     -0.30      0.00
    8    8   20     -0.40      0.00
   -7    9   20     -2.11      0.00
   -6    9   20      4.27      0.00
   -5    9   20     -0.98      0.00
   -4    9   20     -1.73      0.00
   -3    9   20      1.44      0.00
   -2    9   20     -2.44      0.00
   -1    9   20      2.16      0.00
    0    9   20      1.79      0.00
    1    9   20     -1.53      0.00
  -27    0   21     -2.66      0.00
  -27    1   21      0.85      0.00
   19    2   21      1.91      0.00
  -23    5   21     -2.22      0.00
   16    5   21     -0.63      0.00
  -21    6   21     -0.66      0.00
   14    6   21     -1.15      0.00
  -18    7   21     -0.30      0.00
   11    7   21      3.04      0.00
  -14    8   21     -0.36      0.00
    7    8   21     -1.64      0.00
   -5    9   21     -1.09      0.00
   -4    9   21      1.90      0.00
   -3    9   21     -0.72      0.00
   -2    9   21      0.64      0.00
   19    1   22      0.20      0.00
  -26    2   22     -4.88      0.00
   18    3   22      0.04      0.00
  -24    4   22     -4.55      0.00
   17    4   22      1.64      0.00
   15    5   22      0.02      0.00
   13    6   22      0.67      0.00
  -18    7   22     -2.38      0.00
   10    7   22      0.44      0.00
  -13    8   22     -1.65      0.00
    6    8   22     -0.50      0.00
  -26    2   23     -3.00      0.00
   18    2   23     -4.88      0.00
  -25    3   23      6.11      0.00
   17    3   23     -1.91      0.00
  -24    4   23      5.12      0.00
   16    4   23      0.32      0.00
  -22    5   23     -2.13      0.00
  -20    6   23      3.82      0.00
   12    6   23     -1.13      0.00
  -17    7   23      2.66      0.00
    9    7   23     -0.01      0.00
  -13    8   23     -1.63      0.00
  -12    8   23      0.69      0.00
    4    8   23      0.82      0.00
    5    8   23     -0.22      0.00
  -26    0   24     -0.65      0.00
   18    0   24      4.34      0.00
  -26    1   24     -0.98      0.00
   18    1   24     -4.23      0.00
  -25    3   24      2.25      0.00
  -22    5   24      0.47      0.00
   14    5   24      0.72      0.00
  -20    6   24     -0.52      0.00
  -17    7   24      0.33      0.00
    8    7   24     -0.74      0.00
  -12    8   24      0.88      0.00
  -11    8   24      0.31      0.00
    3    8   24     -0.48      0.00
    4    8   24     -0.37      0.00
  -26    1   25     -1.14      0.00
  -25    2   25      2.43      0.00
   17    2   25      0.61      0.00
   16    3   25      1.98      0.00
  -23    4   25     -0.40      0.00
   15    4   25      2.28      0.00
   13    5   25     -2.44      0.00
  -19    6   25      0.46      0.00
   11    6   25      2.15      0.00
  -16    7   25     -0.70      0.00
    7    7   25      0.96      0.00
  -11    8   25     -0.14      0.00
  -10    8   25      1.02      0.00
   -9    8   25      2.73      0.00
    1    8   25     -3.20      0.00
    2    8   25     -0.15      0.00
  -25    2   26     -0.03      0.00
   16    2   26      1.52      0.00
  -24    3   26     -2.21      0.00
  -23    4   26      0.45      0.00
   14    4   26      0.51      0.00
  -21    5   26      0.14      0.00
   12    5   26     -1.21      0.00
  -19    6   26     -2.52      0.00
   10    6   26      3.94      0.00
  -15    7   26      1.54      0.00
    6    7   26     -1.15      0.00
   -9    8   26      0.51      0.00
   -8    8   26     -2.05      0.00
   -7    8   26     -4.59      0.00
   -6    8   26     -2.63      0.00
   -5    8   26      1.04      0.00
   -3    8   26      2.04      0.00
   -2    8   26      2.18      0.00
   -1    8   26     -2.44      0.00
    0    8   26     -2.42      0.00
  -25    0   27      1.22      0.00
  -25    1   27      0.31      0.00
   16    1   27     -1.62      0.00
  -24    3   27     -2.57      0.00
   13    4   27      2.74      0.00
  -21    5   27      2.96      0.00
  -18    6   27      3.70      0.00
    9    6   27      1.68      0.00
  -14    7   27      0.62      0.00
    5    7   27     -0.29      0.00
   -6    8   27      3.26      0.00
   -5    8   27      0.43      0.00
   -4    8   27      1.32      0.00
   -3    8   27      0.65      0.00
  -25    1   28     -0.37      0.00
   15    1   28     -1.32      0.00
  -24    2   28     -4.62      0.00
   15    2   28     -3.62      0.00
  -23    3   28     -3.91      0.00
   14    3   28      1.03      0.00
  -22    4   28     -4.34      0.00
  -20    5   28      0.39      0.00
  -17    6   28     -0.26      0.00
    8    6   28      2.26      0.00
  -13    7   28     -2.35      0.00
    3    7   28     -0.10      0.00
    4    7   28      0.39      0.00
  -24    1   29     -1.11      0.00
  -24    2   29      1.76      0.00
   14    2   29     -5.16      0.00
  -23    3   29     -0.03      0.00
   13    3   29      0.30      0.00
   10    5   29      1.47      0.00
  -17    6   29      2.07      0.00
  -16    6   29     -0.23      0.00
    7    6   29     -0.22      0.00
  -12    7   29      0.84      0.00
  -11    7   29      1.12      0.00
    2    7   29     -1.96      0.00
  -24    0   30      1.23      0.00
   14    0   30     -4.07      0.00
  -24    1   30      0.14      0.00
   14    1   30      0.30      0.00
  -23    2   30      1.89      0.00
   13    2   30     -3.62      0.00
  -22    3   30      0.04      0.00
   12    3   30      1.26      0.00
  -21    4   30      0.99      0.00
   11    4   30      2.92      0.00
  -19    5   30      1.44      0.00
    9    5   30      4.18      0.00
  -16    6   30     -2.97      0.00
    5    6   30     -1.29      0.00
    6    6   30     -0.26      0.00
  -11    7   30     -1.02      0.00
  -10    7   30      0.82      0.00
   -9    7   30     -1.06      0.00
   -1    7   30      0.15      0.00
    0    7   30     -0.46      0.00
   13    0   31     -0.23      0.00
  -23    1   31     -1.85      0.00
   13    1   31      2.73      0.00
  -23    2   31     -0.82      0.00
   12    2   31     -0.15      0.00
  -22    3   31     -0.54      0.00
   11    3   31     -0.15      0.00
  -20    4   31     -1.74      0.00
   10    4   31      2.97      0.00
  -18    5   31     -1.44      0.00
    8    5   31      2.28      0.00
  -15    6   31      1.05      0.00
  -14    6   31      1.67      0.00
    4    6   31      0.25      0.00
   -8    7   31      5.29      0.00
   -7    7   31     -1.57      0.00
   -6    7   31     -1.08      0.00
   -5    7   31      0.92      0.00
   -4    7   31     -0.65      0.00
   -3    7   31     -0.01      0.00
   -2    7   31     -1.31      0.00
   12    0   32     -0.91      0.00
  -23    1   32      1.18      0.00
   12    1   32      1.81      0.00
  -22    2   32     -1.87      0.00
  -21    3   32     -1.13      0.00
   10    3   32     -0.14      0.00
  -20    4   32      1.04      0.00
    9    4   32      3.11      0.00
  -17    5   32     -1.18      0.00
    6    5   32     -1.36      0.00
  -14    6   32     -0.56      0.00
  -13    6   32      2.49      0.00
    2    6   32     -0.24      0.00
    3    6   32      1.85      0.00
   11    0   33     -0.75      0.00
  -22    1   33     -1.05      0.00
   11    1   33     -0.01      0.00
  -22    2   33      1.45      0.00
    9    3   33     -1.89      0.00
  -19    4   33     -1.61      0.00
    8    4   33      1.68      0.00
  -16    5   33      3.50      0.00
    5    5   33     -1.33      0.00
  -12    6   33     -2.30      0.00
  -11    6   33     -3.32      0.00
    0    6   33      0.69      0.00
    1    6   33     -1.30      0.00
  -22    0   34      1.10      0.00
   10    0   34     -0.42      0.00
   10    1   34     -2.12      0.00
  -21    2   34     -0.51      0.00
    9    2   34     -0.25      0.00
  -20    3   34     -0.10      0.00
    8    3   34     -2.63      0.00
  -18    4   34     -1.03      0.00
    6    4   34      1.83      0.00
  -15    5   34     -1.83      0.00
    3    5   34      4.02      0.00
    4    5   34     -1.36      0.00
  -10    6   34      1.09      0.00
   -9    6   34      0.48      0.00
   -8    6   34     -2.45      0.00
   -7    6   34      0.28      0.00
   -6    6   34     -1.01      0.00
   -5    6   34     -0.13      0.00
   -4    6   34      0.51      0.00
   -3    6   34      0.48      0.00
   -2    6   34      0.89      0.00
  -21    0   35      2.27      0.00
    9    0   35      0.51      0.00
  -21    1   35     -0.22      0.00
    9    1   35     -1.57      0.00
  -20    2   35     -0.63      0.00
    8    2   35      0.95      0.00
  -19    3   35     -3.40      0.00
    7    3   35     -1.74      0.00
  -17    4   35      1.04      0.00
    5    4   35      1.85      0.00
  -14    5   35      0.36      0.00
  -13    5   35      0.96      0.00
    1    5   35     -0.53      0.00
    2    5   35      3.00      0.00
  -20    0   36     -2.23      0.00
    8    0   36      5.32      0.00
  -20    1   36     -3.87      0.00
    8    1   36     -0.66      0.00
  -19    2   36      1.62      0.00
    7    2   36      2.20      0.00
  -18    3   36      1.10      0.00
    6    3   36      0.62      0.00
  -16    4   36      1.43      0.00
  -15    4   36      0.71      0.00
    3    4   36     -1.96      0.00
    4    4   36      2.13      0.00
  -12    5   36     -1.26      0.00
  -11    5   36     -0.42      0.00
  -10    5   36     -0.48      0.00
   -2    5   36     -1.45      0.00
   -1    5   36      2.13      0.00
    0    5   36     -0.25      0.00
  -19    0   37     -1.42      0.00
    7    0   37      2.60      0.00
  -19    1   37      4.01      0.00
  -18    2   37     -0.78      0.00
    6    2   37      1.00      0.00
  -17    3   37      0.59      0.00
  -16    3   37     -1.50      0.00
    4    3   37     -7.02      0.00
  -14    4   37      1.16      0.00
    1    4   37      0.20      0.00
    2    4   37      0.35      0.00
   -9    5   37      1.16      0.00
   -8    5   37      0.66      0.00
   -7    5   37      0.08      0.00
   -6    5   37     -0.64      0.00
   -5    5   37      0.65      0.00
   -4    5   37      0.44      0.00
   -3    5   37     -0.42      0.00
  -18    0   38      0.99      0.00
  -18    1   38     -0.51      0.00
    5    1   38     -0.22      0.00
  -17    2   38      2.29      0.00
    4    2   38      1.69      0.00
  -16    3   38      0.77      0.00
  -15    3   38      1.35      0.00
    2    3   38     -0.90      0.00
    3    3   38     -3.58      0.00
  -13    4   38     -3.85      0.00
  -12    4   38      0.42      0.00
  -11    4   38      1.21      0.00
   -2    4   38     -1.52      0.00
   -1    4   38     -0.95      0.00
    0    4   38      0.95      0.00
  -17    0   39      2.25      0.00
  -17    1   39     -1.27      0.00
  -16    1   39      6.23      0.00
    3    1   39      0.91      0.00
    4    1   39     -0.80      0.00
  -16    2   39     -4.44      0.00
  -15    2   39     10.36      0.00
    2    2   39     -3.02      0.00
    3    2   39     -0.88      0.00
  -14    3   39      0.60      0.00
  -13    3   39     -1.03      0.00
    0    3   39      0.98      0.00
    1    3   39      0.53      0.00
  -10    4   39     -0.97      0.00
   -9    4   39     -3.32      0.00
   -8    4   39     -0.89      0.00
   -7    4   39      0.48      0.00
   -6    4   39      0.50      0.00
   -5    4   39      1.00      0.00
   -4    4   39      0.67      0.00
  -16    0   40     -2.89      0.00
    2    0   40      2.08      0.00
  -15    1   40     -5.69      0.00
    1    1   40     -0.15      0.00
    2    1   40      0.65      0.00
  -14    2   40     -5.74      0.00
  -13    2   40      2.76      0.00
   -1    2   40     -2.07      0.00
    0    2   40      0.52      0.00
    1    2   40     -2.52      0.00
  -12    3   40      0.98      0.00
  -11    3   40      0.09      0.00
  -10    3   40     -2.07      0.00
   -9    3   40      0.22      0.00
   -8    3   40      1.09      0.00
   -7    3   40     -0.56      0.00
   -6    3   40     -0.70      0.00
   -5    3   40     -1.00      0.00
   -4    3   40      4.00      0.00
   -3    3   40      0.06      0.00
   -2    3   40      1.96      0.00
  -13    0   41      1.49      0.00
   -7    0   41     -0.41      0.00
   -1    0   41      1.60      0.00
  -14    1   41      1.05      0.00
  -13    1   41     -2.03      0.00
  -12    1   41     -0.57      0.00
   -2    1   41      1.96      0.00
   -1    1   41     -0.64      0.00
    0    1   41     -0.47      0.00
  -12    2   41     -1.73      0.00
  -11    2   41     -0.40      0.00
  -10    2   41     -2.72      0.00
   -9    2   41      0.09      0.00
   -5    2   41     -0.34      0.00
   -4    2   41      1.08      0.00
   -3    2   41      4.61      0.00
   -2    2   41     -1.44      0.00
  -12    0   42     -1.60      0.00
  -10    0   42      0.33      0.00
   -8    0   42      0.23      0.00
   -6    0   42     -0.80      0.00
   -4    0   42     -0.90      0.00
  -11    1   42      3.20      0.00
  -10    1   42      3.02      0.00
   -9    1   42     -1.63      0.00
   -8    1   42      2.29      0.00
   -7    1   42     -1.98      0.00
   -6    1   42     -1.02      0.00
   -5    1   42      0.23      0.00
   -4    1   42     -0.25      0.00
    0    0    0      0.00      0.00
# SQUEEZE RESULTS (Version = 291119)
# Note: Data are Listed for all Voids in the P1 Unit Cell
# i.e. Centre of Gravity, Solvent Accessible Volume,
# Recovered number of Electrons in the Void and
# Details about the Squeezed Material
loop_
  _platon_squeeze_void_nr
  _platon_squeeze_void_average_x
  _platon_squeeze_void_average_y
  _platon_squeeze_void_average_z
  _platon_squeeze_void_volume
  _platon_squeeze_void_count_electrons
  _platon_squeeze_void_content
   1  0.250  0.002  0.250       663       232 ' '
   2  1.000  0.000  0.500        83        22 ' '
   3  0.750 -0.019  0.750       662       232 ' '
   4  0.500  0.500  0.000        83        22 ' '
# Missing Reflections Below sin(th)/lambda = 0.25
loop_
  _platon_missing_refln_index_h
  _platon_missing_refln_index_k
  _platon_missing_refln_index_l
  _platon_missing_refln_theta
    1    0    1     1.307
    0    0    2     1.291
_platon_squeeze_void_probe_radius                  1.20
_platon_squeeze_details
)
TITL SIR97 run in space group P 21/n
CELL   21.4790    7.9353   32.6600     90.00    105.01     90.00
SPGR P21/n
# Solvent Accessible Volume =      1493
# Electrons Found in S.A.V. =       508
# Note: Atoms in Void are Labelled as Cxxx and Qxxx for all Others
C101 0.939 1.004 0.482 !       2.67 eA-3
C102 0.007 0.046 0.487 !       2.32 eA-3
C103 0.429 0.754 0.353 !       1.74 eA-3
C104 0.233 0.243 0.170 !       1.70 eA-3
C105 0.266 0.740 0.349 !       1.69 eA-3
C106 0.898 0.948 0.754 !       1.61 eA-3
C107 0.509 0.138 0.760 !       1.55 eA-3
C108 0.428 0.665 0.283 !       1.50 eA-3
C109 0.298 0.903 0.242 !       1.48 eA-3
C110 0.306 0.795 0.353 !       1.42 eA-3
C111 0.148 0.191 0.150 !       1.40 eA-3
C112 0.852 0.809 0.850 !       1.40 eA-3
C113 0.602 0.194 0.643 !       1.40 eA-3
C114 0.398 0.806 0.357 !       1.40 eA-3
C115 0.774 0.656 0.827 !       1.39 eA-3
C116 0.765 0.242 0.665 !       1.38 eA-3
C117 0.353 0.519 0.352 !       1.35 eA-3
C118 0.350 0.834 0.359 !       1.35 eA-3
C119 0.376 0.510 0.328 !       1.35 eA-3
C120 0.891 0.942 0.822 !       1.34 eA-3
C121 0.375 0.684 0.362 !       1.34 eA-3
C122 0.234 0.760 0.316 !       1.33 eA-3
C123 0.904 0.937 0.858 !       1.33 eA-3
C124 0.430 0.666 0.318 !       1.32 eA-3
C125 0.142 0.507 0.171 !       1.32 eA-3
C126 0.180 0.398 0.278 !       1.30 eA-3
C127 0.875 0.587 0.843 !       1.30 eA-3
C128 0.447 0.823 0.250 !       1.29 eA-3
C129 0.107 0.197 0.160 !       1.28 eA-3
C130 0.390 0.622 0.344 !       1.27 eA-3
C131 0.389 0.752 0.237 !       1.26 eA-3
C132 0.377 0.579 0.376 !       1.26 eA-3
C133 0.046 0.251 0.232 !       1.24 eA-3
C134 0.413 0.875 0.359 !       1.23 eA-3
C135 0.878 0.933 0.838 !       1.21 eA-3
C136 0.406 0.584 0.295 !       1.20 eA-3
C137 0.672 0.968 0.663 !       1.20 eA-3
C138 0.812 0.570 0.816 !       1.19 eA-3
C139 0.213 0.338 0.275 !       1.18 eA-3
C140 0.149 0.265 0.163 !       1.18 eA-3
C141 0.250 0.872 0.300 !       1.18 eA-3
C142 0.367 0.716 0.387 !       1.17 eA-3
C143 0.305 0.791 0.229 !       1.17 eA-3
C144 0.867 0.779 0.879 !       1.16 eA-3
C145 0.140 0.284 0.265 !       1.15 eA-3
C146 0.095 0.252 0.244 !       1.12 eA-3
C147 0.280 0.667 0.353 !       1.11 eA-3
C148 0.093 0.189 0.193 !       1.10 eA-3
C149 0.216 0.253 0.124 !       1.09 eA-3
C150 0.375 0.493 0.275 !       1.09 eA-3
C151 0.249 0.623 0.341 !       1.09 eA-3
C152 0.749 0.873 0.831 !       1.08 eA-3
C153 0.399 0.865 0.247 !       1.08 eA-3
C154 0.182 0.193 0.260 !       1.08 eA-3
C155 0.865 0.479 0.864 !       1.07 eA-3
C156 0.135 0.521 0.136 !       1.07 eA-3
C157 0.654 0.303 0.679 !       1.07 eA-3
C158 0.272 0.939 0.286 !       1.07 eA-3
C159 0.234 0.426 0.239 !       1.06 eA-3
C160 0.299 0.997 0.245 !       1.06 eA-3
C161 0.353 0.400 0.327 !       1.05 eA-3
C162 0.673 0.191 0.761 !       1.05 eA-3
C163 0.272 0.772 0.297 !       1.05 eA-3
C164 0.375 0.385 0.320 !       1.01 eA-3
C165 0.251 0.230 0.132 !       1.01 eA-3
C166 0.296 0.582 0.240 !       1.01 eA-3
C167 0.292 0.035 0.288 !       1.01 eA-3
C168 0.389 0.472 0.353 !       1.01 eA-3
C169 0.352 0.048 0.231 !       1.00 eA-3
C170 0.258 0.825 0.245 !       1.00 eA-3
C171 0.336 0.621 0.375 !       1.00 eA-3
C172 0.258 0.230 0.236 !       1.00 eA-3
C173 0.579 0.330 0.753 !       0.98 eA-3
C174 0.171 0.057 0.177 !       0.98 eA-3
C175 0.298 1.013 0.211 !       0.98 eA-3
C176 0.436 0.780 0.313 !       0.98 eA-3
C177 0.186 0.988 0.178 !       0.97 eA-3
Q178 0.344 0.704 0.217 !       0.97 eA-3
C179 0.140 0.403 0.192 !       0.97 eA-3
C180 0.236 0.747 0.289 !       0.96 eA-3
C181 0.211 0.314 0.246 !       0.95 eA-3
C182 0.413 0.927 0.299 !       0.95 eA-3
C183 0.664 0.931 0.697 !       0.95 eA-3
C184 0.687 0.760 0.821 !       0.94 eA-3
C185 0.194 0.155 0.170 !       0.93 eA-3
C186 0.195 0.690 0.298 !       0.93 eA-3
C187 0.117 0.504 0.241 !       0.92 eA-3
C188 0.219 0.221 0.260 !       0.92 eA-3
C189 0.384 0.509 0.209 !       0.91 eA-3
Q190 0.500 0.979 0.884 !       0.91 eA-3
C191 0.772 0.258 0.773 !       0.90 eA-3
C192 0.221 0.445 0.153 !       0.90 eA-3
C193 0.124 0.473 0.275 !       0.90 eA-3
C194 0.648 0.848 0.673 !       0.89 eA-3
C195 0.353 0.974 0.256 !       0.89 eA-3
C196 0.274 0.526 0.315 !       0.88 eA-3
C197 0.313 0.253 0.235 !       0.88 eA-3
C198 0.242 1.000 0.280 !       0.88 eA-3
C199 0.170 0.023 0.135 !       0.88 eA-3
)
;
_shelx_fab_checksum              84219
loop_
_space_group_symop_operation_xyz
'x, y, z'
'-x+1/2, y+1/2, -z+1/2'
'-x, -y, -z'
'x-1/2, -y-1/2, z-1/2'
loop_
_atom_site_label
_atom_site_type_symbol
_atom_site_fract_x
_atom_site_fract_y
_atom_site_fract_z
_atom_site_U_iso_or_equiv
_atom_site_adp_type
_atom_site_occupancy
_atom_site_site_symmetry_order
_atom_site_calc_flag
_atom_site_refinement_flags_posn
_atom_site_refinement_flags_adp
_atom_site_refinement_flags_occupancy
_atom_site_disorder_assembly
_atom_site_disorder_group
C1 C -0.02166(11) -0.2577(4) -0.03179(6) 0.0374(10) Uani 1 1 d G . . . .
H1 H -0.0457 -0.2580 -0.0599 0.045 Uiso 1 1 calc R U . . .
C2 C 0.04090(12) -0.3205(4) -0.02117(7) 0.0372(10) Uani 1 1 d G . . . .
C3 C 0.07690(10) -0.3201(4) 0.02086(8) 0.0394(10) Uani 1 1 d G . . . .
C4 C 0.05033(12) -0.2570(4) 0.05227(6) 0.0446(11) Uani 1 1 d G . . . .
H4 H 0.0744 -0.2568 0.0804 0.054 Uiso 1 1 calc R U . . .
C5 C -0.01223(12) -0.1943(4) 0.04165(7) 0.0403(11) Uani 1 1 d G . . . .
C6 C -0.04822(10) -0.1947(4) -0.00037(8) 0.0380(10) Uani 1 1 d G . . . .
C7 C 0.0686(2) -0.3819(6) -0.05622(14) 0.0452(11) Uani 1 1 d . . . . .
H7A H 0.0858 -0.4947 -0.0500 0.054 Uiso 1 1 calc R U . . .
H7B H 0.0354 -0.3851 -0.0828 0.054 Uiso 1 1 calc R U . . .
C8 C 0.1450(2) -0.3877(7) 0.03290(16) 0.0551(13) Uani 1 1 d . . . . .
H8A H 0.1440 -0.5093 0.0356 0.066 Uiso 1 1 calc R U . . .
H8B H 0.1661 -0.3605 0.0108 0.066 Uiso 1 1 calc R U . . .
C9 C -0.0375(2) -0.1160(6) 0.07673(14) 0.0516(12) Uani 1 1 d . . . . .
H9A H -0.0157 -0.0101 0.0858 0.062 Uiso 1 1 calc R U . . .
H9B H -0.0834 -0.0940 0.0665 0.062 Uiso 1 1 calc R U . . .
C10 C -0.1159(2) -0.1237(6) -0.01349(14) 0.0426(11) Uani 1 1 d . . . . .
H10A H -0.1157 -0.0075 -0.0042 0.051 Uiso 1 1 calc R U . . .
H10B H -0.1318 -0.1263 -0.0441 0.051 Uiso 1 1 calc R U . . .
C11 C 0.16398(13) -0.3271(4) -0.07944(9) 0.0467(12) Uani 1 1 d G . . . .
C12 C 0.14973(12) -0.4391(4) -0.11331(10) 0.0571(14) Uani 1 1 d G . . . .
H12 H 0.1079 -0.4787 -0.1237 0.069 Uiso 1 1 calc R U . . .
C13 C 0.19807(16) -0.4919(4) -0.13161(9) 0.0640(15) Uani 1 1 d G . . . .
H13 H 0.1885 -0.5668 -0.1543 0.077 Uiso 1 1 calc R U . . .
C14 C 0.26066(13) -0.4327(4) -0.11603(10) 0.0540(13) Uani 1 1 d G . . . .
C15 C 0.27491(11) -0.3207(5) -0.08215(11) 0.0673(15) Uani 1 1 d G . . . .
H15 H 0.3168 -0.2811 -0.0717 0.081 Uiso 1 1 calc R U . . .
C16 C 0.22657(15) -0.2679(4) -0.06386(9) 0.0631(15) Uani 1 1 d G . . . .
H16 H 0.2361 -0.1930 -0.0412 0.076 Uiso 1 1 calc R U . . .
C17 C 0.3143(3) -0.4936(8) -0.1342(2) 0.0680(16) Uani 1 1 d . . . . .
C18 C 0.24489(11) -0.3456(4) 0.08395(11) 0.0539(13) Uani 1 1 d G . . . .
C19 C 0.27826(14) -0.4481(4) 0.06241(9) 0.0587(14) Uani 1 1 d G . . . .
H19 H 0.2559 -0.5094 0.0389 0.070 Uiso 1 1 calc R U . . .
C20 C 0.34505(14) -0.4590(4) 0.07597(10) 0.0613(14) Uani 1 1 d G . . . .
H20 H 0.3674 -0.5276 0.0616 0.074 Uiso 1 1 calc R U . . .
C21 C 0.37846(11) -0.3673(4) 0.11106(11) 0.0562(13) Uani 1 1 d G . . . .
C22 C 0.34509(15) -0.2648(4) 0.13260(10) 0.0684(16) Uani 1 1 d G . . . .
H22 H 0.3674 -0.2034 0.1561 0.082 Uiso 1 1 calc R U . . .
C23 C 0.27831(15) -0.2539(4) 0.11905(10) 0.0707(17) Uani 1 1 d G . . . .
H23 H 0.2560 -0.1853 0.1335 0.085 Uiso 1 1 calc R U . . .
C24 C 0.4513(3) -0.3714(8) 0.12405(19) 0.0632(15) Uani 1 1 d . . . . .
C25 C -0.04096(17) -0.1783(4) 0.14679(8) 0.0563(13) Uani 1 1 d G . . . .
C26 C -0.02136(18) -0.2851(4) 0.18147(10) 0.0702(17) Uani 1 1 d G . . . .
H26 H -0.0009 -0.3863 0.1788 0.084 Uiso 1 1 calc R U . . .
C27 C -0.03229(19) -0.2408(4) 0.22019(8) 0.0739(17) Uani 1 1 d G . . . .
H27 H -0.0192 -0.3123 0.2434 0.089 Uiso 1 1 calc R U . . .
C28 C -0.06280(18) -0.0895(5) 0.22424(8) 0.0581(14) Uani 1 1 d G . . . .
C29 C -0.08240(17) 0.0173(4) 0.18956(10) 0.0654(15) Uani 1 1 d G . . . .
H29 H -0.1028 0.1185 0.1923 0.079 Uiso 1 1 calc R U . . .
C30 C -0.07147(17) -0.0270(4) 0.15084(8) 0.0630(15) Uani 1 1 d G . . . .
H30 H -0.0846 0.0445 0.1276 0.076 Uiso 1 1 calc R U . . .
C31 C -0.21778(12) -0.1652(4) 0.00149(10) 0.0441(11) Uani 1 1 d G . . . .
C32 C -0.24788(16) -0.0450(4) -0.02799(9) 0.0551(13) Uani 1 1 d G . . . .
H32 H -0.2261 0.0013 -0.0465 0.066 Uiso 1 1 calc R U . . .
C33 C -0.31045(16) 0.0059(4) -0.02980(11) 0.0718(17) Uani 1 1 d G . . . .
H33 H -0.3306 0.0863 -0.0495 0.086 Uiso 1 1 calc R U . . .
C34 C -0.34293(12) -0.0634(5) -0.00213(14) 0.079(2) Uani 1 1 d G . . . .
C35 C -0.31283(16) -0.1835(5) 0.02735(12) 0.0762(17) Uani 1 1 d G . . . .
H35 H -0.3346 -0.2299 0.0459 0.091 Uiso 1 1 calc R U . . .
C36 C -0.25026(16) -0.2345(4) 0.02917(10) 0.0609(14) Uani 1 1 d G . . . .
H36 H -0.2301 -0.3149 0.0489 0.073 Uiso 1 1 calc R U . . .
C37 C -0.4093(4) 0.0000(13) -0.0040(4) 0.133(4) Uani 1 1 d . . . . .
C38 C -0.0720(3) -0.0371(8) 0.26658(17) 0.0581(14) Uani 1 1 d . . . . .
C39 C 0.6664(5) -0.0493(10) 0.1777(4) 0.129(4) Uani 1 1 d . . . . .
C40 C 0.7151(7) -0.0415(16) 0.1445(4) 0.227(6) Uani 1 1 d . . . . .
H40A H 0.6952 -0.1009 0.1188 0.341 Uiso 1 1 calc R U . . .
H40B H 0.7219 0.0739 0.1379 0.341 Uiso 1 1 calc R U . . .
H40C H 0.7557 -0.0929 0.1578 0.341 Uiso 1 1 calc R U . . .
C41 C 0.7541(5) 0.1131(14) 0.2207(3) 0.197(6) Uani 1 1 d . . . . .
H41A H 0.7574 0.1564 0.2486 0.296 Uiso 1 1 calc R U . . .
H41B H 0.7895 0.0382 0.2215 0.296 Uiso 1 1 calc R U . . .
H41C H 0.7553 0.2048 0.2017 0.296 Uiso 1 1 calc R U . . .
C42 C 0.6515(5) 0.0141(13) 0.2402(3) 0.169(5) Uani 1 1 d . . . . .
H42A H 0.6725 0.0740 0.2655 0.253 Uiso 1 1 calc R U . . .
H42B H 0.6101 0.0639 0.2279 0.253 Uiso 1 1 calc R U . . .
H42C H 0.6460 -0.1017 0.2469 0.253 Uiso 1 1 calc R U . . .
C43 C 0.0657(6) -0.3603(13) 0.3592(5) 0.222(7) Uani 1 1 d D . . . .
H43A H 0.0722 -0.3733 0.3314 0.332 Uiso 1 1 calc R U . . .
H43B H 0.0784 -0.2489 0.3695 0.332 Uiso 1 1 calc R U . . .
H43C H 0.0912 -0.4419 0.3780 0.332 Uiso 1 1 calc R U . . .
C44 C -0.0242(6) -0.3725(15) 0.3962(3) 0.223(8) Uani 1 1 d D . . . .
H44A H -0.0698 -0.3928 0.3892 0.334 Uiso 1 1 calc R U . . .
H44B H -0.0024 -0.4546 0.4165 0.334 Uiso 1 1 calc R U . . .
H44C H -0.0153 -0.2617 0.4080 0.334 Uiso 1 1 calc R U . . .
N1 N 0.6955(4) 0.0247(9) 0.2063(3) 0.142(3) Uani 1 1 d . . . . .
N2 N -0.0012(5) -0.3855(10) 0.3573(3) 0.169(4) Uani 1 1 d D . . . .
O1 O 0.47986(17) -0.2704(6) 0.15226(14) 0.0814(12) Uani 1 1 d . . . . .
O2 O 0.48083(18) -0.4728(6) 0.10694(14) 0.0827(12) Uani 1 1 d . . . . .
O3 O 0.3702(2) -0.4732(8) -0.11501(15) 0.1127(18) Uani 1 1 d . . . . .
O4 O 0.2991(2) -0.5629(6) -0.16971(16) 0.1039(16) Uani 1 1 d . . . . .
O5 O -0.4315(3) 0.1174(10) -0.0284(4) 0.228(5) Uani 1 1 d . . . . .
O6 O -0.4421(3) -0.0781(10) 0.0139(3) 0.187(4) Uani 1 1 d . . . . .
O7 O -0.0948(2) 0.1076(6) 0.26902(11) 0.0767(12) Uani 1 1 d . . . . .
O8 O -0.0557(2) -0.1318(5) 0.29779(11) 0.0789(12) Uani 1 1 d . . . . .
O9 O 0.11906(14) -0.2674(4) -0.05945(10) 0.0497(8) Uani 1 1 d . . . . .
O10 O 0.17989(15) -0.3166(5) 0.07169(11) 0.0623(10) Uani 1 1 d . . . . .
O11 O -0.02590(19) -0.2296(4) 0.11075(10) 0.0672(11) Uani 1 1 d . . . . .
O12 O -0.15663(14) -0.2233(4) 0.00548(10) 0.0472(8) Uani 1 1 d . . . . .
O13 O 0.6145(2) -0.1141(5) 0.16470(15) 0.0926(14) Uani 1 1 d . . . . .
Cd1 Cd 0.58276(2) -0.39239(5) 0.15987(2) 0.04657(14) Uani 1 1 d . . . . .
loop_
_atom_site_aniso_label
_atom_site_aniso_U_11
_atom_site_aniso_U_22
_atom_site_aniso_U_33
_atom_site_aniso_U_23
_atom_site_aniso_U_13
_atom_site_aniso_U_12
C1 0.030(2) 0.051(3) 0.034(2) -0.005(2) 0.014(2) -0.006(2)
C2 0.025(2) 0.048(3) 0.043(2) -0.006(2) 0.017(2) 0.002(2)
C3 0.026(2) 0.047(3) 0.046(3) -0.004(2) 0.012(2) 0.003(2)
C4 0.037(3) 0.057(3) 0.041(2) -0.002(2) 0.013(2) 0.003(2)
C5 0.038(3) 0.047(3) 0.039(2) -0.002(2) 0.017(2) 0.000(2)
C6 0.025(2) 0.043(3) 0.049(3) -0.004(2) 0.015(2) -0.001(2)
C7 0.028(2) 0.059(3) 0.052(3) -0.009(2) 0.017(2) -0.002(2)
C8 0.028(2) 0.074(4) 0.061(3) -0.008(3) 0.008(2) 0.005(3)
C9 0.054(3) 0.061(3) 0.042(3) -0.003(3) 0.016(2) 0.011(3)
C10 0.030(2) 0.057(3) 0.043(2) 0.004(2) 0.014(2) 0.004(2)
C11 0.036(3) 0.054(3) 0.055(3) 0.003(2) 0.023(2) 0.010(2)
C12 0.037(3) 0.084(4) 0.056(3) -0.018(3) 0.021(3) -0.004(3)
C13 0.057(4) 0.088(4) 0.058(3) -0.015(3) 0.035(3) 0.006(3)
C14 0.045(3) 0.071(4) 0.055(3) 0.005(3) 0.029(3) 0.011(3)
C15 0.037(3) 0.090(4) 0.080(4) -0.019(3) 0.025(3) -0.008(3)
C16 0.041(3) 0.081(4) 0.074(4) -0.026(3) 0.029(3) -0.010(3)
C17 0.066(4) 0.087(4) 0.066(4) 0.008(3) 0.044(4) 0.016(3)
C18 0.032(3) 0.067(4) 0.062(3) 0.001(3) 0.012(3) 0.011(2)
C19 0.038(3) 0.068(4) 0.066(3) -0.012(3) 0.006(3) 0.006(3)
C20 0.033(3) 0.073(4) 0.075(4) -0.002(3) 0.008(3) 0.020(3)
C21 0.029(3) 0.066(4) 0.071(3) 0.010(3) 0.007(3) 0.006(2)
C22 0.042(3) 0.083(4) 0.074(4) -0.019(3) 0.003(3) 0.003(3)
C23 0.044(3) 0.095(5) 0.069(4) -0.025(3) 0.007(3) 0.010(3)
C24 0.042(3) 0.066(4) 0.075(4) 0.024(3) 0.004(3) 0.006(3)
C25 0.058(3) 0.069(3) 0.046(3) -0.003(3) 0.021(3) 0.004(3)
C26 0.097(5) 0.070(4) 0.052(3) 0.005(3) 0.035(3) 0.024(3)
C27 0.096(5) 0.079(4) 0.049(3) 0.010(3) 0.023(3) 0.013(4)
C28 0.054(3) 0.078(4) 0.049(3) 0.001(3) 0.027(3) 0.003(3)
C29 0.072(4) 0.079(4) 0.051(3) -0.006(3) 0.027(3) 0.025(3)
C30 0.069(4) 0.078(4) 0.046(3) 0.007(3) 0.021(3) 0.024(3)
C31 0.027(2) 0.048(3) 0.061(3) -0.008(2) 0.018(2) 0.008(2)
C32 0.038(3) 0.060(3) 0.069(3) -0.004(3) 0.016(3) 0.007(2)
C33 0.035(3) 0.068(4) 0.107(5) -0.005(3) 0.007(3) 0.012(3)
C34 0.028(3) 0.076(4) 0.128(6) -0.041(4) 0.012(4) 0.004(3)
C35 0.042(3) 0.100(5) 0.097(4) -0.015(4) 0.037(3) -0.004(3)
C36 0.041(3) 0.072(4) 0.077(4) 0.018(3) 0.028(3) 0.009(3)
C37 0.045(5) 0.098(7) 0.253(12) -0.058(7) 0.035(6) 0.007(5)
C38 0.044(3) 0.088(4) 0.048(3) -0.015(3) 0.022(3) -0.009(3)
C39 0.090(6) 0.062(5) 0.197(11) 0.023(6) -0.032(7) -0.003(5)
C40 0.275(17) 0.237(14) 0.221(13) 0.054(11) 0.157(13) -0.030(12)
C41 0.138(9) 0.227(13) 0.181(10) 0.005(9) -0.041(8) -0.103(9)
C42 0.202(12) 0.191(10) 0.134(8) 0.016(7) 0.081(8) 0.091(9)
C43 0.151(11) 0.113(9) 0.335(19) -0.046(10) -0.053(12) 0.025(8)
C44 0.293(18) 0.234(14) 0.115(8) 0.011(8) 0.005(10) -0.165(12)
N1 0.108(6) 0.084(5) 0.178(8) -0.003(5) -0.061(6) -0.010(4)
N2 0.179(9) 0.116(6) 0.163(8) 0.011(6) -0.043(7) -0.042(6)
O1 0.039(2) 0.100(3) 0.092(3) 0.005(3) -0.006(2) -0.005(2)
O2 0.037(2) 0.099(3) 0.106(3) -0.002(3) 0.007(2) 0.020(2)
O3 0.036(2) 0.207(5) 0.102(3) -0.040(4) 0.031(3) 0.011(3)
O4 0.084(3) 0.143(4) 0.108(4) -0.026(3) 0.067(3) 0.011(3)
O5 0.057(4) 0.178(8) 0.441(15) 0.007(8) 0.050(6) 0.053(4)
O6 0.069(4) 0.198(8) 0.325(11) -0.037(6) 0.107(6) 0.012(4)
O7 0.079(3) 0.108(3) 0.048(2) -0.006(2) 0.027(2) 0.023(3)
O8 0.099(3) 0.099(3) 0.044(2) 0.003(2) 0.029(2) -0.001(2)
O9 0.0400(19) 0.056(2) 0.064(2) -0.0069(16) 0.0338(17) 0.0027(16)
O10 0.0282(18) 0.091(3) 0.063(2) -0.022(2) 0.0040(17) 0.0108(18)
O11 0.101(3) 0.065(2) 0.049(2) 0.0042(18) 0.043(2) 0.022(2)
O12 0.0268(16) 0.050(2) 0.069(2) 0.0093(16) 0.0193(16) 0.0093(14)
O13 0.067(3) 0.079(3) 0.118(4) 0.013(3) -0.002(3) -0.020(2)
Cd1 0.03127(19) 0.0703(3) 0.04102(19) -0.00144(18) 0.01451(14) 0.00245(18)
loop_
_atom_type_symbol
_atom_type_description
_atom_type_scat_dispersion_real
_atom_type_scat_dispersion_imag
_atom_type_scat_source
C C 0.0033 0.0016 'International Tables Vol C Tables 4.2.6.8 and 6.1.1.4'
H H 0.0000 0.0000 'International Tables Vol C Tables 4.2.6.8 and 6.1.1.4'
N N 0.0061 0.0033 'International Tables Vol C Tables 4.2.6.8 and 6.1.1.4'
O O 0.0106 0.0060 'International Tables Vol C Tables 4.2.6.8 and 6.1.1.4'
Cd Cd -0.8075 1.2024 'International Tables Vol C Tables 4.2.6.8 and 6.1.1.4'
loop_
_geom_angle_atom_site_label_1
_geom_angle_atom_site_label_2
_geom_angle_atom_site_label_3
_geom_angle
_geom_angle_site_symmetry_1
_geom_angle_site_symmetry_3
_geom_angle_publ_flag
C2 C1 H1 120.0 . . ?
C2 C1 C6 120.0 . . ?
C6 C1 H1 120.0 . . ?
C1 C2 C3 120.0 . . ?
C1 C2 C7 118.3(2) . . ?
C3 C2 C7 121.6(2) . . ?
C2 C3 C8 120.6(2) . . ?
C4 C3 C2 120.0 . . ?
C4 C3 C8 119.4(2) . . ?
C3 C4 H4 120.0 . . ?
C3 C4 C5 120.0 . . ?
C5 C4 H4 120.0 . . ?
C4 C5 C6 120.0 . . ?
C4 C5 C9 118.0(2) . . ?
C6 C5 C9 121.9(2) . . ?
C1 C6 C10 118.2(2) . . ?
C5 C6 C1 120.0 . . ?
C5 C6 C10 121.8(2) . . ?
C2 C7 H7A 110.2 . . ?
C2 C7 H7B 110.2 . . ?
H7A C7 H7B 108.5 . . ?
O9 C7 C2 107.8(3) . . ?
O9 C7 H7A 110.2 . . ?
O9 C7 H7B 110.2 . . ?
C3 C8 H8A 109.6 . . ?
C3 C8 H8B 109.6 . . ?
H8A C8 H8B 108.1 . . ?
O10 C8 C3 110.2(3) . . ?
O10 C8 H8A 109.6 . . ?
O10 C8 H8B 109.6 . . ?
C5 C9 H9A 110.1 . . ?
C5 C9 H9B 110.1 . . ?
H9A C9 H9B 108.4 . . ?
O11 C9 C5 108.0(3) . . ?
O11 C9 H9A 110.1 . . ?
O11 C9 H9B 110.1 . . ?
C6 C10 H10A 109.9 . . ?
C6 C10 H10B 109.9 . . ?
H10A C10 H10B 108.3 . . ?
O12 C10 C6 108.7(3) . . ?
O12 C10 H10A 109.9 . . ?
O12 C10 H10B 109.9 . . ?
C12 C11 C16 120.0 . . ?
O9 C11 C12 124.0(2) . . ?
O9 C11 C16 116.0(2) . . ?
C11 C12 H12 120.0 . . ?
C13 C12 C11 120.0 . . ?
C13 C12 H12 120.0 . . ?
C12 C13 H13 120.0 . . ?
C14 C13 C12 120.0 . . ?
C14 C13 H13 120.0 . . ?
C13 C14 C15 120.0 . . ?
C13 C14 C17 120.9(3) . . ?
C15 C14 C17 119.1(3) . . ?
C14 C15 H15 120.0 . . ?
C14 C15 C16 120.0 . . ?
C16 C15 H15 120.0 . . ?
C11 C16 H16 120.0 . . ?
C15 C16 C11 120.0 . . ?
C15 C16 H16 120.0 . . ?
C14 C17 Cd1 174.9(4) . 3_645 ?
O3 C17 C14 120.6(5) . . ?
O3 C17 O4 121.7(5) . . ?
O3 C17 Cd1 55.1(3) . 3_645 ?
O4 C17 C14 117.7(6) . . ?
O4 C17 Cd1 66.7(3) . 3_645 ?
C19 C18 C23 120.0 . . ?
O10 C18 C19 124.8(3) . . ?
O10 C18 C23 115.0(3) . . ?
C18 C19 H19 120.0 . . ?
C18 C19 C20 120.0 . . ?
C20 C19 H19 120.0 . . ?
C19 C20 H20 120.0 . . ?
C21 C20 C19 120.0 . . ?
C21 C20 H20 120.0 . . ?
C20 C21 C22 120.0 . . ?
C20 C21 C24 119.7(3) . . ?
C22 C21 C24 120.2(3) . . ?
C21 C22 H22 120.0 . . ?
C23 C22 C21 120.0 . . ?
C23 C22 H22 120.0 . . ?
C18 C23 H23 120.0 . . ?
C22 C23 C18 120.0 . . ?
C22 C23 H23 120.0 . . ?
O1 C24 C21 117.8(5) . . ?
O2 C24 C21 120.0(5) . . ?
O2 C24 O1 122.3(5) . . ?
C26 C25 C30 120.0 . . ?
O11 C25 C26 115.6(3) . . ?
O11 C25 C30 124.3(3) . . ?
C25 C26 H26 120.0 . . ?
C27 C26 C25 120.0 . . ?
C27 C26 H26 120.0 . . ?
C26 C27 H27 120.0 . . ?
C28 C27 C26 120.0 . . ?
C28 C27 H27 120.0 . . ?
C27 C28 C29 120.0 . . ?
C27 C28 C38 120.2(3) . . ?
C29 C28 C38 119.7(3) . . ?
C28 C29 H29 120.0 . . ?
C30 C29 C28 120.0 . . ?
C30 C29 H29 120.0 . . ?
C25 C30 H30 120.0 . . ?
C29 C30 C25 120.0 . . ?
C29 C30 H30 120.0 . . ?
C32 C31 C36 120.0 . . ?
O12 C31 C32 124.1(2) . . ?
O12 C31 C36 115.9(2) . . ?
C31 C32 H32 120.0 . . ?
C31 C32 C33 120.0 . . ?
C33 C32 H32 120.0 . . ?
C32 C33 H33 120.0 . . ?
C34 C33 C32 120.0 . . ?
C34 C33 H33 120.0 . . ?
C33 C34 C35 120.0 . . ?
C33 C34 C37 118.3(6) . . ?
C35 C34 C37 121.7(6) . . ?
C34 C35 H35 120.0 . . ?
C36 C35 C34 120.0 . . ?
C36 C35 H35 120.0 . . ?
C31 C36 H36 120.0 . . ?
C35 C36 C31 120.0 . . ?
C35 C36 H36 120.0 . . ?
O5 C37 C34 118.9(10) . . ?
O6 C37 C34 118.7(10) . . ?
O6 C37 O5 121.7(8) . . ?
C28 C38 Cd1 170.8(4) . 2 ?
O7 C38 C28 117.1(5) . . ?
O7 C38 Cd1 55.7(2) . 2 ?
O8 C38 C28 120.7(5) . . ?
O8 C38 O7 122.1(5) . . ?
O8 C38 Cd1 66.5(3) . 2 ?
N1 C39 C40 101.9(10) . . ?
N1 C39 O13 140.5(13) . . ?
O13 C39 C40 117.3(11) . . ?
C39 C40 H40A 109.5 . . ?
C39 C40 H40B 109.5 . . ?
C39 C40 H40C 109.5 . . ?
H40A C40 H40B 109.5 . . ?
H40A C40 H40C 109.5 . . ?
H40B C40 H40C 109.5 . . ?
H41A C41 H41B 109.5 . . ?
H41A C41 H41C 109.5 . . ?
H41B C41 H41C 109.5 . . ?
N1 C41 H41A 109.5 . . ?
N1 C41 H41B 109.5 . . ?
N1 C41 H41C 109.5 . . ?
H42A C42 H42B 109.5 . . ?
H42A C42 H42C 109.5 . . ?
H42B C42 H42C 109.5 . . ?
N1 C42 H42A 109.5 . . ?
N1 C42 H42B 109.5 . . ?
N1 C42 H42C 109.5 . . ?
H43A C43 H43B 109.5 . . ?
H43A C43 H43C 109.5 . . ?
H43B C43 H43C 109.5 . . ?
N2 C43 H43A 109.5 . . ?
N2 C43 H43B 109.5 . . ?
N2 C43 H43C 109.5 . . ?
H44A C44 H44B 109.5 . . ?
H44A C44 H44C 109.5 . . ?
H44B C44 H44C 109.5 . . ?
N2 C44 H44A 109.5 . . ?
N2 C44 H44B 109.5 . . ?
N2 C44 H44C 109.5 . . ?
C39 N1 C41 141.3(12) . . ?
C39 N1 C42 103.7(10) . . ?
C41 N1 C42 115.0(9) . . ?
C43 N2 C44 120.4(10) . . ?
C24 O1 Cd1 94.7(4) . . ?
C24 O2 Cd1 88.9(3) . . ?
C17 O3 Cd1 98.7(4) . 3_645 ?
C17 O4 Cd1 86.0(4) . 3_645 ?
C38 O7 Cd1 97.0(3) . 2 ?
C38 O8 Cd1 86.4(3) . 2 ?
C11 O9 C7 116.7(3) . . ?
C18 O10 C8 117.4(3) . . ?
C25 O11 C9 117.3(3) . . ?
C31 O12 C10 116.9(3) . . ?
C39 O13 Cd1 131.7(5) . . ?
C17 Cd1 C38 113.15(16) 3_645 2_545 ?
O1 Cd1 C17 156.53(17) . 3_645 ?
O1 Cd1 C38 88.56(15) . 2_545 ?
O1 Cd1 O2 53.42(14) . . ?
O1 Cd1 O4 163.98(16) . 3_645 ?
O1 Cd1 O8 91.39(14) . 2_545 ?
O2 Cd1 C17 109.84(18) . 3_645 ?
O2 Cd1 C38 104.09(17) . 2_545 ?
O2 Cd1 O4 137.07(15) . 3_645 ?
O2 Cd1 O8 84.32(14) . 2_545 ?
O3 Cd1 C17 26.19(17) 3_645 3_645 ?
O3 Cd1 C38 121.9(2) 3_645 2_545 ?
O3 Cd1 O1 133.63(16) 3_645 . ?
O3 Cd1 O2 83.65(15) 3_645 . ?
O3 Cd1 O4 53.46(15) 3_645 3_645 ?
O3 Cd1 O7 135.58(18) 3_645 2_545 ?
O3 Cd1 O8 101.97(18) 3_645 2_545 ?
O3 Cd1 O13 108.87(19) 3_645 . ?
O4 Cd1 C17 27.30(16) 3_645 3_645 ?
O4 Cd1 C38 98.15(16) 3_645 2_545 ?
O4 Cd1 O8 101.22(15) 3_645 2_545 ?
O7 Cd1 C17 115.46(17) 2_545 3_645 ?
O7 Cd1 C38 27.28(15) 2_545 2_545 ?
O7 Cd1 O1 87.89(15) 2_545 . ?
O7 Cd1 O2 123.77(14) 2_545 . ?
O7 Cd1 O4 91.47(15) 2_545 3_645 ?
O7 Cd1 O8 54.28(13) 2_545 2_545 ?
O7 Cd1 O13 88.67(16) 2_545 . ?
O8 Cd1 C17 103.98(15) 2_545 3_645 ?
O8 Cd1 C38 27.04(15) 2_545 2_545 ?
O13 Cd1 C17 95.18(18) . 3_645 ?
O13 Cd1 C38 115.75(19) . 2_545 ?
O13 Cd1 O1 82.35(16) . . ?
O13 Cd1 O2 118.91(15) . . ?
O13 Cd1 O4 81.63(17) . 3_645 ?
O13 Cd1 O8 142.73(15) . 2_545 ?
loop_
_geom_bond_atom_site_label_1
_geom_bond_atom_site_label_2
_geom_bond_distance
_geom_bond_site_symmetry_2
_geom_bond_publ_flag
C1 H1 0.9300 . ?
C1 C2 1.3900 . ?
C1 C6 1.3900 . ?
C2 C3 1.3900 . ?
C2 C7 1.502(4) . ?
C3 C4 1.3900 . ?
C3 C8 1.510(5) . ?
C4 H4 0.9300 . ?
C4 C5 1.3900 . ?
C5 C6 1.3900 . ?
C5 C9 1.522(4) . ?
C6 C10 1.513(4) . ?
C7 H7A 0.9700 . ?
C7 H7B 0.9700 . ?
C7 O9 1.439(5) . ?
C8 H8A 0.9700 . ?
C8 H8B 0.9700 . ?
C8 O10 1.412(5) . ?
C9 H9A 0.9700 . ?
C9 H9B 0.9700 . ?
C9 O11 1.402(5) . ?
C10 H10A 0.9700 . ?
C10 H10B 0.9700 . ?
C10 O12 1.434(5) . ?
C11 C12 1.3900 . ?
C11 C16 1.3900 . ?
C11 O9 1.381(3) . ?
C12 H12 0.9300 . ?
C12 C13 1.3900 . ?
C13 H13 0.9300 . ?
C13 C14 1.3900 . ?
C14 C15 1.3900 . ?
C14 C17 1.506(6) . ?
C15 H15 0.9300 . ?
C15 C16 1.3900 . ?
C16 H16 0.9300 . ?
C17 O3 1.212(7) . ?
C17 O4 1.248(7) . ?
C17 Cd1 2.715(5) 3_645 ?
C18 C19 1.3900 . ?
C18 C23 1.3900 . ?
C18 O10 1.368(4) . ?
C19 H19 0.9300 . ?
C19 C20 1.3900 . ?
C20 H20 0.9300 . ?
C20 C21 1.3900 . ?
C21 C22 1.3900 . ?
C21 C24 1.511(6) . ?
C22 H22 0.9300 . ?
C22 C23 1.3900 . ?
C23 H23 0.9300 . ?
C24 O1 1.255(7) . ?
C24 O2 1.244(7) . ?
C25 C26 1.3900 . ?
C25 C30 1.3900 . ?
C25 O11 1.362(3) . ?
C26 H26 0.9300 . ?
C26 C27 1.3900 . ?
C27 H27 0.9300 . ?
C27 C28 1.3900 . ?
C28 C29 1.3900 . ?
C28 C38 1.506(5) . ?
C29 H29 0.9300 . ?
C29 C30 1.3900 . ?
C30 H30 0.9300 . ?
C31 C32 1.3900 . ?
C31 C36 1.3900 . ?
C31 O12 1.366(3) . ?
C32 H32 0.9300 . ?
C32 C33 1.3900 . ?
C33 H33 0.9300 . ?
C33 C34 1.3900 . ?
C34 C35 1.3900 . ?
C34 C37 1.498(8) . ?
C35 H35 0.9300 . ?
C35 C36 1.3900 . ?
C36 H36 0.9300 . ?
C37 O5 1.238(13) . ?
C37 O6 1.198(12) . ?
C38 O7 1.258(6) . ?
C38 O8 1.241(6) . ?
C38 Cd1 2.726(5) 2 ?
C39 C40 1.694(13) . ?
C39 N1 1.141(10) . ?
C39 O13 1.200(9) . ?
C40 H40A 0.9600 . ?
C40 H40B 0.9600 . ?
C40 H40C 0.9600 . ?
C41 H41A 0.9600 . ?
C41 H41B 0.9600 . ?
C41 H41C 0.9600 . ?
C41 N1 1.412(10) . ?
C42 H42A 0.9600 . ?
C42 H42B 0.9600 . ?
C42 H42C 0.9600 . ?
C42 N1 1.633(11) . ?
C43 H43A 0.9600 . ?
C43 H43B 0.9600 . ?
C43 H43C 0.9600 . ?
C43 N2 1.435(11) . ?
C44 H44A 0.9600 . ?
C44 H44B 0.9600 . ?
C44 H44C 0.9600 . ?
C44 N2 1.479(11) . ?
O1 Cd1 2.366(4) . ?
O2 Cd1 2.496(4) . ?
O3 Cd1 2.253(4) 3_645 ?
O4 Cd1 2.499(4) 3_645 ?
O7 Cd1 2.269(3) 2 ?
O8 Cd1 2.505(4) 2 ?
O13 Cd1 2.304(4) . ?
Cd1 C17 2.715(5) 3_645 ?
Cd1 C38 2.725(5) 2_545 ?
Cd1 O3 2.253(4) 3_645 ?
Cd1 O4 2.499(4) 3_645 ?
Cd1 O7 2.269(3) 2_545 ?
Cd1 O8 2.505(4) 2_545 ?
loop_
_geom_torsion_atom_site_label_1
_geom_torsion_atom_site_label_2
_geom_torsion_atom_site_label_3
_geom_torsion_atom_site_label_4
_geom_torsion
_geom_torsion_site_symmetry_1
_geom_torsion_site_symmetry_2
_geom_torsion_site_symmetry_3
_geom_torsion_site_symmetry_4
_geom_torsion_publ_flag
C1 C2 C3 C4 0.0 . . . . ?
C1 C2 C3 C8 -179.9(3) . . . . ?
C1 C2 C7 O9 111.6(3) . . . . ?
C1 C6 C10 O12 117.2(3) . . . . ?
C2 C1 C6 C5 0.0 . . . . ?
C2 C1 C6 C10 178.5(3) . . . . ?
C2 C3 C4 C5 0.0 . . . . ?
C2 C3 C8 O10 156.6(3) . . . . ?
C2 C7 O9 C11 159.7(3) . . . . ?
C3 C2 C7 O9 -66.3(4) . . . . ?
C3 C4 C5 C6 0.0 . . . . ?
C3 C4 C5 C9 -176.0(3) . . . . ?
C3 C8 O10 C18 -170.6(3) . . . . ?
C4 C3 C8 O10 -23.3(5) . . . . ?
C4 C5 C6 C1 0.0 . . . . ?
C4 C5 C6 C10 -178.4(3) . . . . ?
C4 C5 C9 O11 -50.5(4) . . . . ?
C5 C6 C10 O12 -64.3(4) . . . . ?
C5 C9 O11 C25 175.5(3) . . . . ?
C6 C1 C2 C3 0.0 . . . . ?
C6 C1 C2 C7 -177.9(3) . . . . ?
C6 C5 C9 O11 133.6(3) . . . . ?
C6 C10 O12 C31 172.0(3) . . . . ?
C7 C2 C3 C4 177.9(3) . . . . ?
C7 C2 C3 C8 -2.1(4) . . . . ?
C8 C3 C4 C5 179.9(3) . . . . ?
C9 C5 C6 C1 175.8(3) . . . . ?
C9 C5 C6 C10 -2.6(4) . . . . ?
C11 C12 C13 C14 0.0 . . . . ?
C12 C11 C16 C15 0.0 . . . . ?
C12 C11 O9 C7 34.4(4) . . . . ?
C12 C13 C14 C15 0.0 . . . . ?
C12 C13 C14 C17 177.5(4) . . . . ?
C13 C14 C15 C16 0.0 . . . . ?
C13 C14 C17 O3 -163.1(5) . . . . ?
C13 C14 C17 O4 17.8(7) . . . . ?
C14 C15 C16 C11 0.0 . . . . ?
C14 C17 O3 Cd1 176.8(4) . . . 3_645 ?
C14 C17 O4 Cd1 -177.2(4) . . . 3_645 ?
C15 C14 C17 O3 14.4(7) . . . . ?
C15 C14 C17 O4 -164.6(4) . . . . ?
C16 C11 C12 C13 0.0 . . . . ?
C16 C11 O9 C7 -145.9(3) . . . . ?
C17 C14 C15 C16 -177.6(4) . . . . ?
C18 C19 C20 C21 0.0 . . . . ?
C19 C18 C23 C22 0.0 . . . . ?
C19 C18 O10 C8 -4.2(5) . . . . ?
C19 C20 C21 C22 0.0 . . . . ?
C19 C20 C21 C24 -176.3(4) . . . . ?
C20 C21 C22 C23 0.0 . . . . ?
C20 C21 C24 O1 170.8(4) . . . . ?
C20 C21 C24 O2 -9.3(6) . . . . ?
C21 C22 C23 C18 0.0 . . . . ?
C21 C24 O1 Cd1 171.0(4) . . . . ?
C21 C24 O2 Cd1 -171.5(4) . . . . ?
C22 C21 C24 O1 -5.5(6) . . . . ?
C22 C21 C24 O2 174.4(4) . . . . ?
C23 C18 C19 C20 0.0 . . . . ?
C23 C18 O10 C8 171.3(3) . . . . ?
C24 C21 C22 C23 176.3(4) . . . . ?
C25 C26 C27 C28 0.0 . . . . ?
C26 C25 C30 C29 0.0 . . . . ?
C26 C25 O11 C9 -172.2(3) . . . . ?
C26 C27 C28 C29 0.0 . . . . ?
C26 C27 C28 C38 -177.2(4) . . . . ?
C27 C28 C29 C30 0.0 . . . . ?
C27 C28 C38 O7 173.9(4) . . . . ?
C27 C28 C38 O8 -3.9(6) . . . . ?
C28 C29 C30 C25 0.0 . . . . ?
C28 C38 O7 Cd1 -173.3(3) . . . 2 ?
C28 C38 O8 Cd1 173.7(4) . . . 2 ?
C29 C28 C38 O7 -3.3(6) . . . . ?
C29 C28 C38 O8 179.0(4) . . . . ?
C30 C25 C26 C27 0.0 . . . . ?
C30 C25 O11 C9 5.2(5) . . . . ?
C31 C32 C33 C34 0.0 . . . . ?
C32 C31 C36 C35 0.0 . . . . ?
C32 C31 O12 C10 17.4(4) . . . . ?
C32 C33 C34 C35 0.0 . . . . ?
C32 C33 C34 C37 177.6(5) . . . . ?
C33 C34 C35 C36 0.0 . . . . ?
C33 C34 C37 O5 -3.8(11) . . . . ?
C33 C34 C37 O6 166.8(8) . . . . ?
C34 C35 C36 C31 0.0 . . . . ?
C35 C34 C37 O5 173.8(8) . . . . ?
C35 C34 C37 O6 -15.7(12) . . . . ?
C36 C31 C32 C33 0.0 . . . . ?
C36 C31 O12 C10 -162.9(3) . . . . ?
C37 C34 C35 C36 -177.5(5) . . . . ?
C38 C28 C29 C30 177.2(4) . . . . ?
C40 C39 N1 C41 0.3(16) . . . . ?
C40 C39 N1 C42 -177.8(7) . . . . ?
C40 C39 O13 Cd1 82.0(10) . . . . ?
N1 C39 O13 Cd1 -105.3(13) . . . . ?
O1 C24 O2 Cd1 8.4(6) . . . . ?
O2 C24 O1 Cd1 -8.9(6) . . . . ?
O3 C17 O4 Cd1 3.7(7) . . . 3_645 ?
O4 C17 O3 Cd1 -4.2(8) . . . 3_645 ?
O7 C38 O8 Cd1 -4.0(5) . . . 2 ?
O8 C38 O7 Cd1 4.4(6) . . . 2 ?
O9 C11 C12 C13 179.7(3) . . . . ?
O9 C11 C16 C15 -179.7(3) . . . . ?
O10 C18 C19 C20 175.3(4) . . . . ?
O10 C18 C23 C22 -175.8(3) . . . . ?
O11 C25 C26 C27 177.6(4) . . . . ?
O11 C25 C30 C29 -177.3(4) . . . . ?
O12 C31 C32 C33 179.7(3) . . . . ?
O12 C31 C36 C35 -179.7(3) . . . . ?
O13 C39 N1 C41 -173.0(11) . . . . ?
O13 C39 N1 C42 8.8(15) . . . . ?
