#------------------------------------------------------------------------------
#$Date: 2019-11-24 04:12:18 +0200 (Sun, 24 Nov 2019) $
#$Revision: 236652 $
#$URL: file:///home/coder/svn-repositories/cod/cif/8/00/03/8000367.cif $
#------------------------------------------------------------------------------
#
# This file is available in the Crystallography Open Database (COD),
# http://www.crystallography.net/
#
# All data on this site have been placed in the public domain by the
# contributors.
#
data_8000367
loop_
_publ_author_name
'Andrzejewski, Micha\/l'
'Katrusiak, Andrzej'
_publ_section_title
;
 Piezochromic Porous Metal-Organic Framework.
;
_journal_issue                   1
_journal_name_full               'The journal of physical chemistry letters'
_journal_page_first              279
_journal_page_last               284
_journal_paper_doi               10.1021/acs.jpclett.6b02458
_journal_volume                  8
_journal_year                    2017
_chemical_formula_moiety         'C14 H18 Co N2 O5'
_chemical_formula_sum            'C14 H18 Co N2 O5'
_chemical_formula_weight         353.23
_chemical_name_common            AMU1
_chemical_name_systematic
;
Co(1,4-benzenedicarboxylate)(1,4-diazabicyclo[2.2.2]octane)H2O
;
_space_group_crystal_system      triclinic
_space_group_IT_number           1
_space_group_name_Hall           'P 1'
_space_group_name_H-M_alt        'P 1'
_atom_sites_solution_hydrogens   mixed
_atom_sites_solution_primary     direct
_audit_creation_date             2016-07-12
_audit_creation_method
;
Olex2 1.2
(compiled 2016.02.19 svn.r3266 for OlexSys, GUI svn.r5155)
;
_cell_angle_alpha                88.987(5)
_cell_angle_beta                 96.008(6)
_cell_angle_gamma                93.603(6)
_cell_formula_units_Z            1
_cell_length_a                   5.9924(5)
_cell_length_b                   7.0915(5)
_cell_length_c                   10.6453(7)
_cell_measurement_reflns_used    3681
_cell_measurement_temperature    130(2)
_cell_measurement_theta_max      58.116
_cell_measurement_theta_min      5.756
_cell_volume                     448.97(6)
_computing_molecular_graphics    'Olex2 (Dolomanov et al., 2009)'
_computing_publication_material  'Olex2 (Dolomanov et al., 2009)'
_computing_structure_refinement  'ShelXL (Sheldrick, 2015)'
_computing_structure_solution    'ShelXS (Sheldrick, 2008)'
_diffrn_ambient_temperature      130(2)
_diffrn_measured_fraction_theta_full 0.914
_diffrn_measured_fraction_theta_max 0.818
_diffrn_measurement_device_type  'multiwire proportional'
_diffrn_measurement_method       'phi and omega scans'
_diffrn_radiation_monochromator  graphite
_diffrn_radiation_type           MoK\a
_diffrn_radiation_wavelength     0.71073
_diffrn_reflns_av_R_equivalents  0.0538
_diffrn_reflns_av_unetI/netI     0.1321
_diffrn_reflns_Laue_measured_fraction_full 0.914
_diffrn_reflns_Laue_measured_fraction_max 0.818
_diffrn_reflns_limit_h_max       7
_diffrn_reflns_limit_h_min       -8
_diffrn_reflns_limit_k_max       9
_diffrn_reflns_limit_k_min       -9
_diffrn_reflns_limit_l_max       13
_diffrn_reflns_limit_l_min       -13
_diffrn_reflns_number            6250
_diffrn_reflns_point_group_measured_fraction_full 0.914
_diffrn_reflns_point_group_measured_fraction_max 0.818
_diffrn_reflns_theta_full        26.000
_diffrn_reflns_theta_max         29.058
_diffrn_reflns_theta_min         2.878
_exptl_absorpt_coefficient_mu    0.976
_exptl_absorpt_correction_T_max  0.907
_exptl_absorpt_correction_T_min  0.890
_exptl_absorpt_correction_type   multi-scan
_exptl_absorpt_process_details
;
Data were collected and reduced by program CrysAlisPro, 
and SCALE3 ABSPACK was used for absorption correction
;
_exptl_crystal_colour            purple
_exptl_crystal_density_diffrn    1.306
_exptl_crystal_description       plate
_exptl_crystal_F_000             183
_exptl_crystal_size_max          0.3
_exptl_crystal_size_mid          0.1
_exptl_crystal_size_min          0.1
_refine_diff_density_max         0.454
_refine_diff_density_min         -0.444
_refine_diff_density_rms         0.089
_refine_ls_abs_structure_details
;
 Refined as a perfect inversion twin.
;
_refine_ls_abs_structure_Flack   0.5
_refine_ls_extinction_method     none
_refine_ls_goodness_of_fit_ref   0.991
_refine_ls_hydrogen_treatment    constr
_refine_ls_matrix_type           full
_refine_ls_number_parameters     200
_refine_ls_number_reflns         3681
_refine_ls_number_restraints     129
_refine_ls_restrained_S_all      0.979
_refine_ls_R_factor_all          0.0747
_refine_ls_R_factor_gt           0.0578
_refine_ls_shift/su_max          0.000
_refine_ls_shift/su_mean         0.000
_refine_ls_structure_factor_coef Fsqd
_refine_ls_weighting_details
'w=1/[\s^2^(Fo^2^)+(0.0605P)^2^] where P=(Fo^2^+2Fc^2^)/3'
_refine_ls_weighting_scheme      calc
_refine_ls_wR_factor_gt          0.1295
_refine_ls_wR_factor_ref         0.1350
_reflns_Friedel_coverage         1.000
_reflns_Friedel_fraction_full    0.914
_reflns_Friedel_fraction_max     0.818
_reflns_number_gt                2798
_reflns_number_total             3681
_reflns_threshold_expression     'I > 2\s(I)'
_cod_data_source_file            jz6b02458_si_004.cif
_cod_data_source_block           130K_P1
_cod_database_code               8000367
_shelx_space_group_comment
;
The symmetry employed for this shelxl refinement is uniquely defined
by the following loop, which should always be used as a source of
symmetry information in preference to the above space-group names.
They are only intended as comments.
;
_olex2_refinement_description
;
1. Fixed Uiso
 At 1.2 times of:
  All C(H) groups, All C(H,H) groups
 At 1.5 times of:
  All O(H,H) groups
2. Uiso/Uaniso restraints and constraints
Uanis(C11) \\sim Ueq, Uanis(C9) \\sim Ueq, Uanis(C13) \\sim Ueq, Uanis(C14)
\\sim Ueq, Uanis(N1) \\sim Ueq, Uanis(C10) \\sim Ueq, Uanis(C12) \\sim Ueq,
Uanis(N2) \\sim Ueq: with sigma of 0.001 and sigma for terminal atoms of 0.002
Uanis(O1W) \\sim Ueq: with sigma of 0.001 and sigma for terminal atoms of 0.002
Uanis(O1) \\sim Ueq, Uanis(C7) \\sim Ueq, Uanis(O2) \\sim Ueq, Uanis(C1) \\sim
Ueq, Uanis(C2) \\sim Ueq, Uanis(C6) \\sim Ueq, Uanis(C5) \\sim Ueq, Uanis(C4)
\\sim Ueq, Uanis(C3) \\sim Ueq, Uanis(O4) \\sim Ueq, Uanis(C8) \\sim Ueq,
Uanis(O3) \\sim Ueq: with sigma of 0.001 and sigma for terminal atoms of 0.002
3.a Rotating group:
 O1W(H1WA,H1WB)
3.b Secondary CH2 refined with riding coordinates:
 C11(H11A,H11B), C9(H9A,H9B), C13(H13A,H13B), C14(H14A,H14B), C10(H10A,H10B),
 C12(H12A,H12B)
3.c Aromatic/amide H refined with riding coordinates:
 C6(H6), C2(H2), C3(H3), C5(H5)
;
_shelx_hkl_file
;
  -8  -1   0   38.68   16.40
  -8  -1   1   11.15   17.98
  -8  -1   2    2.44   16.63
  -7  -3  -3   20.18   17.11
  -7  -3  -2   35.41   17.00
  -7  -3  -1   50.02   17.65
  -7  -3   0   86.79   18.30
  -7  -3   1   24.36   15.82
  -7  -3   2   25.26   16.12
  -7  -3   3   24.40   16.20
  -7  -3   4   11.18   15.96
  -7  -3   5   49.29   17.49
  -7  -3   6   10.75   16.12
  -7  -2  -3   12.19   15.48
  -7  -2  -2    4.73   13.91
  -7  -2  -1    3.23   14.36
  -7  -2   0   43.86   10.60
  -7  -2   1    7.15    9.82
  -7  -2   2    9.52   13.11
  -7  -2   3   11.62   14.18
  -7  -2   4    2.12   14.45
  -7  -2   5   32.00   14.33
  -7  -2   6    7.62   15.62
  -7  -1  -5   21.37   14.16
  -7  -1  -4   23.99   16.15
  -7  -1  -1   15.90   12.38
  -7  -1   0   64.77   15.93
  -7  -1   1   17.16   12.79
  -7  -1   2   27.09   14.00
  -7  -1   3   11.81   13.66
  -7  -1   4   24.62   12.96
  -7  -1   5   28.65   12.72
  -7  -1   6   33.36   14.01
  -7   1  -3   27.33   15.73
  -7   1  -2   10.63   12.52
  -7   1  -1    7.14   11.11
  -7   1   0   39.62   14.64
  -7   1   1   11.34   12.13
  -7   1   2   29.35   10.03
  -7   1   3    2.44    9.70
  -7   1   4   26.88   10.96
  -7   1   5   34.72   10.24
  -7   1   6   31.33   23.02
  -7   1   7   22.64   14.82
  -7   2  -3    3.75   16.76
  -7   2  -2   13.09   16.51
  -7   2  -1   23.40   16.62
  -7   2   0   55.46   17.16
  -7   2   1   26.82   10.18
  -7   2   2   15.47   12.13
  -7   2   3   11.79   10.58
  -7   2   4   11.45   10.71
  -7   2   5    8.18   10.88
  -7   2   6   11.59   11.14
  -7   3  -1   24.37   16.75
  -7   3   0   54.03   17.84
  -7   3   1   52.67   11.65
  -7   3   2   66.02   12.69
  -7   3   3   28.22   11.11
  -7   3   4   49.82   12.33
  -7   3   5   25.05   17.45
  -7   4   1   45.85   16.24
  -7   4   2   35.02   16.45
  -7   4   3   18.27   17.10
  -7   4   4   38.81   18.33
  -7   5   0   11.48   15.44
  -7   5   1   16.03   16.56
  -6  -5  -1    0.36   17.67
  -6  -5   0   38.34   17.92
  -6  -5   1    4.55   17.72
  -6  -5   2   17.81   18.49
  -6  -5   3    9.74   17.52
  -6  -4  -4  103.96   20.24
  -6  -4  -3   52.11   18.38
  -6  -4  -2   58.97   17.27
  -6  -4  -1   15.19   16.59
  -6  -4   0   74.07   18.78
  -6  -4   1   68.05   18.09
  -6  -4   2   78.27   18.64
  -6  -4   3   23.88   17.25
  -6  -4   4   60.93   17.15
  -6  -4   5   40.27   18.07
  -6  -4   6   22.48   17.64
  -6  -3  -5    3.51   16.62
  -6  -3  -4  101.11   18.92
  -6  -3  -3   59.64   16.37
  -6  -3  -2   70.22   16.29
  -6  -3  -1   62.60   15.80
  -6  -3   0   77.46   16.20
  -6  -3   1   52.82   15.22
  -6  -3   2   92.62   16.26
  -6  -3   3   70.90   15.83
  -6  -3   4   47.47   15.43
  -6  -3   5   37.92   15.82
  -6  -3   6   37.74   16.37
  -6  -3   7   31.64   15.45
  -6  -3   8   21.89   16.16
  -6  -2  -7   30.15   18.12
  -6  -2  -6   34.30   16.78
  -6  -2  -5    9.69   15.87
  -6  -2  -4   91.16   16.08
  -6  -2  -3   42.09   14.25
  -6  -2  -2   20.94   13.95
  -6  -2  -1   16.22   13.21
  -6  -2   0   33.25    9.15
  -6  -2   1   32.20    8.56
  -6  -2   2   44.86    8.82
  -6  -2   3   84.81    9.78
  -6  -2   4   35.29    9.17
  -6  -2   5   26.08   10.88
  -6  -2   6    6.75   12.88
  -6  -2   7    3.66   13.47
  -6  -2   8    0.56   13.56
  -6  -2   9    6.32   14.79
  -6  -1  -7   71.90   18.23
  -6  -1  -6   58.06   15.28
  -6  -1  -5   36.34   12.75
  -6  -1  -4   82.30   15.29
  -6  -1  -3   57.71   13.01
  -6  -1  -2   58.94   11.77
  -6  -1  -1   66.91    9.23
  -6  -1   0  109.65    9.72
  -6  -1   1  129.02   10.60
  -6  -1   2  108.16    9.11
  -6  -1   3  105.08    9.42
  -6  -1   4   62.05    8.68
  -6  -1   5   48.57    8.64
  -6  -1   6   31.12    9.17
  -6  -1   7   39.95    8.94
  -6  -1   8   30.56    9.47
  -6  -1   9   54.01   11.00
  -6  -1  10   36.06   15.13
  -6   1  -3   57.32   13.91
  -6   1  -2   89.76   15.14
  -6   1  -1   60.95   14.11
  -6   1   0   84.44    7.81
  -6   1   1   91.00    9.76
  -6   1   2   83.87    9.34
  -6   1   3  115.17   10.78
  -6   1   4   67.87   15.51
  -6   1   5   52.68   13.72
  -6   1   6   12.84   10.91
  -6   1   7   40.22   14.21
  -6   1   8   13.07   13.05
  -6   1   9   30.66   14.70
  -6   2  -3   46.62   16.10
  -6   2  -2  117.24   17.45
  -6   2  -1   59.18    8.90
  -6   2   0   37.21    9.04
  -6   2   1   32.11    8.97
  -6   2   2   48.24   11.09
  -6   2   3  107.64   10.98
  -6   2   4   26.97   10.12
  -6   2   5   40.09   10.08
  -6   2   6   25.05   10.55
  -6   2   7   55.52   11.51
  -6   2   8   23.42   11.34
  -6   2   9   22.22   16.02
  -6   3  -4   87.71   17.89
  -6   3  -3   86.08   17.57
  -6   3  -2  179.45   18.93
  -6   3  -1   62.89   12.90
  -6   3   0   48.02    9.56
  -6   3   1   45.25   10.39
  -6   3   2   96.81   16.98
  -6   3   3  194.01   28.87
  -6   3   4   70.22   10.70
  -6   3   5   73.80   12.11
  -6   3   6   65.97   11.89
  -6   3   7   55.80   11.78
  -6   3   8   15.60   11.91
  -6   4  -4   25.11   17.13
  -6   4  -3   34.40   16.34
  -6   4  -2  161.78   12.97
  -6   4  -1   44.19   10.44
  -6   4   0   47.55   10.85
  -6   4   1   73.92   10.94
  -6   4   2  102.38   12.60
  -6   4   3  108.44   12.01
  -6   4   4   27.49   11.42
  -6   4   5   28.91   10.83
  -6   4   6   54.03   11.81
  -6   4   7   35.84   12.21
  -6   5  -3   29.89   17.02
  -6   5  -2  117.22   16.71
  -6   5  -1    2.43   11.00
  -6   5   0    9.53   11.00
  -6   5   1    4.90   10.55
  -6   5   2   34.84   14.68
  -6   5   3   71.42   12.45
  -6   5   4   11.99   11.10
  -6   5   5   18.90   11.82
  -6   6  -2  119.91   19.95
  -6   6  -1    0.67   16.75
  -6   6   0   22.59   11.44
  -6   6   1   37.37   11.72
  -6   6   2   83.32   13.63
  -5  -6  -2   70.13   19.73
  -5  -6  -1   33.05   18.75
  -5  -6   0   48.18   19.43
  -5  -6   1   52.24   19.10
  -5  -6   2   55.27   20.03
  -5  -6   3   82.84   20.20
  -5  -5  -5   18.47   18.49
  -5  -5  -4   30.47   18.12
  -5  -5  -3   55.41   18.22
  -5  -5  -2   86.03   18.54
  -5  -5  -1   13.51   15.52
  -5  -5   0    0.20   15.21
  -5  -5   1   10.12   15.36
  -5  -5   2   36.08   16.04
  -5  -5   3  131.00   19.06
  -5  -5   4   37.10   17.00
  -5  -5   5   63.66   18.77
  -5  -5   6   32.51   17.07
  -5  -4  -6   25.61   17.90
  -5  -4  -5   15.34   16.01
  -5  -4  -4   18.75   15.53
  -5  -4  -3   17.58   14.69
  -5  -4  -2   99.24   16.93
  -5  -4  -1   43.64   15.52
  -5  -4   0   36.69   14.96
  -5  -4   1   30.67   14.57
  -5  -4   2   71.24   16.22
  -5  -4   3  132.69   17.20
  -5  -4   4   16.46   15.23
  -5  -4   5   22.67   14.36
  -5  -4   6   27.22   14.87
  -5  -4   7   60.53   17.23
  -5  -4   8    7.69   15.78
  -5  -3  -7   46.80   17.64
  -5  -3  -6   62.03   16.78
  -5  -3  -5   58.34   16.33
  -5  -3  -4   84.26   15.61
  -5  -3  -3  133.36   17.23
  -5  -3  -2  342.46   21.03
  -5  -3  -1   64.48   14.42
  -5  -3   0   53.19   13.85
  -5  -3   1   33.80    7.41
  -5  -3   2  109.96   10.51
  -5  -3   3  220.24   11.31
  -5  -3   4   64.45   13.81
  -5  -3   5  110.37   16.18
  -5  -3   6   81.55   15.39
  -5  -3   7  123.30   16.68
  -5  -3   8   26.45   14.62
  -5  -3   9   58.76   16.61
  -5  -2  -8    7.52   17.26
  -5  -2  -7   14.66   15.01
  -5  -2  -6    8.47   13.99
  -5  -2  -5    9.53   13.28
  -5  -2  -4   30.07   13.45
  -5  -2  -3   61.93   13.43
  -5  -2  -2  231.43   17.25
  -5  -2  -1   15.19    7.63
  -5  -2   0    8.90    6.86
  -5  -2   1   16.41    7.11
  -5  -2   2  122.61    8.93
  -5  -2   3  221.35   10.30
  -5  -2   4   24.35    8.27
  -5  -2   5   74.55    8.20
  -5  -2   6   60.53    8.02
  -5  -2   7   63.38    9.14
  -5  -2   8   27.58    8.60
  -5  -2   9   18.51   12.96
  -5  -2  10   16.65   14.42
  -5  -1  -9   58.91   18.86
  -5  -1  -8   41.99   14.62
  -5  -1  -7   56.66   15.69
  -5  -1  -6   53.76   13.90
  -5  -1  -5   28.91   13.51
  -5  -1  -4    2.40    9.88
  -5  -1  -3   22.65   10.09
  -5  -1  -2  253.89   13.47
  -5  -1  -1   22.37    6.94
  -5  -1   0   34.52    7.06
  -5  -1   1   29.86    8.17
  -5  -1   2  114.95    8.44
  -5  -1   3  140.93    9.48
  -5  -1   4    1.76    4.95
  -5  -1   5   28.92    7.10
  -5  -1   6   61.17   13.69
  -5  -1   7   50.51    8.05
  -5  -1   8   34.60    8.48
  -5  -1   9   33.39   18.51
  -5  -1  10   41.69    8.89
  -5  -1  11   90.11   11.88
  -5  -1  12   16.83   13.21
  -5   1 -10    6.34   12.90
  -5   1  -9   28.20   11.97
  -5   1  -8   32.54   13.08
  -5   1  -7   53.01   12.71
  -5   1  -6   25.98    9.42
  -5   1  -5   10.90   10.20
  -5   1  -4   11.33   10.55
  -5   1  -3   22.65    5.79
  -5   1  -2  182.25    9.48
  -5   1  -1   19.70    5.92
  -5   1   0   41.38    4.77
  -5   1   1   33.46    7.66
  -5   1   2   88.32    5.81
  -5   1   3   83.44    7.58
  -5   1   4   26.56    6.37
  -5   1   5   33.78    5.63
  -5   1   6   79.19    8.30
  -5   1   7   20.92    6.22
  -5   1   8   30.78   10.14
  -5   1   9   59.21   14.61
  -5   1  10   40.57   14.64
  -5   1  11   55.53   15.50
  -5   2  -7   43.30   13.26
  -5   2  -6   11.54   11.52
  -5   2  -5   19.31    9.89
  -5   2  -4   23.87    7.66
  -5   2  -3   74.92    6.15
  -5   2  -2  255.44    8.46
  -5   2  -1    1.61    4.69
  -5   2   0   26.76    4.79
  -5   2   1   29.11    8.15
  -5   2   2   58.27    8.39
  -5   2   3   62.74    9.46
  -5   2   4   24.63    8.38
  -5   2   5   59.84   10.53
  -5   2   6  158.91   11.63
  -5   2   7   59.14   14.65
  -5   2   8   68.10   14.83
  -5   2   9   40.16   15.29
  -5   2  10   17.47   15.15
  -5   3  -4   74.45    9.40
  -5   3  -3  153.38   10.33
  -5   3  -2  323.77   13.33
  -5   3  -1    5.23    7.34
  -5   3   0   53.04    9.26
  -5   3   1   65.87    8.66
  -5   3   2   85.24   10.16
  -5   3   3  113.97   10.18
  -5   3   4  110.60   11.75
  -5   3   5  122.84   10.68
  -5   3   6  261.97   14.79
  -5   3   7   66.49   11.07
  -5   3   8   69.55   12.07
  -5   3   9   70.55   12.27
  -5   3  10   76.46   22.64
  -5   4  -4    7.51    9.05
  -5   4  -3   17.48    9.67
  -5   4  -2  113.13   10.45
  -5   4  -1    0.37    8.41
  -5   4   0   45.14    9.20
  -5   4   1   67.38   11.96
  -5   4   2   34.01    9.18
  -5   4   3   30.34    9.24
  -5   4   4   14.99   11.93
  -5   4   5    5.88   11.10
  -5   4   6   69.11   10.97
  -5   4   7   46.66   11.11
  -5   4   8   30.84   11.19
  -5   4   9   31.03   12.09
  -5   5  -4   38.83   10.88
  -5   5  -3   82.05   10.72
  -5   5  -2  147.36   15.14
  -5   5  -1    5.76    9.48
  -5   5   0    5.35    9.44
  -5   5   1    8.59    9.17
  -5   5   2   16.25   12.72
  -5   5   3   44.45   10.05
  -5   5   4   51.28   11.64
  -5   5   5   51.07   10.34
  -5   5   6  143.03   13.61
  -5   5   7   44.08   11.49
  -5   5   8   34.00   12.35
  -5   6  -4   10.55   10.74
  -5   6  -3   34.87   11.32
  -5   6  -2   80.56   11.88
  -5   6  -1   15.62   10.61
  -5   6   0   50.19   10.53
  -5   6   1   59.74   11.31
  -5   6   2   37.24   10.52
  -5   6   3   38.03   11.43
  -5   6   4   38.96   10.61
  -5   6   5    9.80   11.08
  -5   6   6   55.36   12.32
  -5   7  -4   13.73   11.88
  -5   7  -3   34.73   11.97
  -5   7  -2   60.74   13.17
  -5   7  -1   12.65   11.46
  -5   7   0   15.50   11.06
  -5   7   1   22.88   11.02
  -5   7   2   10.78   11.59
  -5   7   3   16.65   14.79
  -5   7   4   13.53   16.04
  -4  -7  -2  107.16   20.64
  -4  -7  -1    2.85   17.15
  -4  -7   0    0.93   16.38
  -4  -7   1   22.99   17.32
  -4  -7   2   42.82   17.41
  -4  -7   3   36.23   17.87
  -4  -6  -5    2.23   16.95
  -4  -6  -4   17.21   16.85
  -4  -6  -3   30.42   16.84
  -4  -6  -2  131.63   19.00
  -4  -6  -1    1.78   15.68
  -4  -6   0   31.91   16.27
  -4  -6   1   37.26   16.25
  -4  -6   2   57.42   16.95
  -4  -6   3   52.69   17.74
  -4  -6   4    0.77   15.74
  -4  -6   5    7.26   15.17
  -4  -6   6   44.37   12.09
  -4  -6   7   37.96   17.39
  -4  -6   8   26.98   18.16
  -4  -5  -7   19.59   16.42
  -4  -5  -6   26.68   16.92
  -4  -5  -5   26.67   16.05
  -4  -5  -4   59.58   17.15
  -4  -5  -3  108.22   16.98
  -4  -5  -2  196.35   20.62
  -4  -5  -1    4.10   13.95
  -4  -5   0    2.32   13.55
  -4  -5   1   12.04   13.06
  -4  -5   2   30.64   14.92
  -4  -5   3   40.79   15.07
  -4  -5   4    9.13   15.02
  -4  -5   5   59.58   14.95
  -4  -5   6  101.10   12.82
  -4  -5   7   46.85   11.08
  -4  -5   8   42.57   11.30
  -4  -5   9   14.27   15.52
  -4  -5  10   12.61   16.49
  -4  -4  -8   77.20   18.74
  -4  -4  -7   62.15   17.17
  -4  -4  -6    5.99   14.99
  -4  -4  -5    7.08   14.40
  -4  -4  -4   10.12   13.05
  -4  -4  -3   20.10   13.88
  -4  -4  -2  157.79   16.17
  -4  -4  -1   21.41   12.54
  -4  -4   0   30.00   12.65
  -4  -4   1   70.17   14.33
  -4  -4   2   80.79   13.78
  -4  -4   3   27.09   13.47
  -4  -4   4   15.28   12.30
  -4  -4   5    3.32    8.67
  -4  -4   6   29.45    9.10
  -4  -4   7   37.32    9.73
  -4  -4   8   53.31   10.89
  -4  -4   9   37.44   10.53
  -4  -4  10   35.75   11.25
  -4  -3  -9   65.03   17.70
  -4  -3  -8   78.53   19.05
  -4  -3  -7  152.30   18.89
  -4  -3  -6   73.74   16.36
  -4  -3  -5   54.00   13.84
  -4  -3  -4  167.09   18.44
  -4  -3  -3  196.22   15.82
  -4  -3  -2  385.35   20.77
  -4  -3  -1    2.98   11.04
  -4  -3   0  105.09   13.75
  -4  -3   1  112.29    7.25
  -4  -3   2  117.74    7.93
  -4  -3   3   84.40    6.48
  -4  -3   4   43.17    7.17
  -4  -3   5  114.72    5.83
  -4  -3   6  193.41    8.92
  -4  -3   7  115.37   16.74
  -4  -3   8   86.26   10.50
  -4  -3   9   47.01   13.86
  -4  -3  10   25.63   14.84
  -4  -3  11   16.76   16.12
  -4  -2 -10   18.10   11.51
  -4  -2  -9   42.05   15.38
  -4  -2  -8   42.74   11.44
  -4  -2  -7   80.78   16.63
  -4  -2  -6    4.22   12.92
  -4  -2  -4   80.89   11.90
  -4  -2  -3   71.49    9.16
  -4  -2  -2  258.53    7.46
  -4  -2  -1    2.43    6.29
  -4  -2   0   52.84    6.60
  -4  -2   1   45.30    6.85
  -4  -2   2   46.29    7.78
  -4  -2   3   27.36    6.65
  -4  -2   4   22.93    5.82
  -4  -2   5   50.73   13.88
  -4  -2   6  127.90    6.39
  -4  -2   7   80.30    6.74
  -4  -2   8   49.04    6.29
  -4  -2   9   32.62   10.60
  -4  -2  10    9.87   11.86
  -4  -2  11   16.08   12.62
  -4  -1 -10   41.98   16.09
  -4  -1  -9  115.36   18.18
  -4  -1  -8  135.50   17.13
  -4  -1  -7  170.45   17.76
  -4  -1  -6    6.43    4.32
  -4  -1  -5    4.78    8.99
  -4  -1  -4   32.43   11.11
  -4  -1  -3   41.66    2.08
  -4  -1  -2  157.11   14.72
  -4  -1  -1    9.33    6.05
  -4  -1   0   94.55    7.46
  -4  -1   1  113.03    6.85
  -4  -1   2   64.62    6.47
  -4  -1   3   26.98    4.90
  -4  -1   4    3.88    8.14
  -4  -1   5    9.76    6.14
  -4  -1   6   61.74    5.58
  -4  -1   7  147.90    9.69
  -4  -1   8   77.67    7.72
  -4  -1   9   64.62   12.05
  -4  -1  10   13.10   11.54
  -4  -1  11    1.00   13.95
  -4  -1  12   46.13   15.27
  -4  -1  13   12.45   14.20
  -4   1 -11   23.72   15.99
  -4   1 -10   10.08   11.20
  -4   1  -9   87.69   14.99
  -4   1  -8   68.42   11.79
  -4   1  -7  113.07   13.53
  -4   1  -6    6.80   10.91
  -4   1  -5   15.36    7.12
  -4   1  -4   20.81    4.47
  -4   1  -3   34.58    3.59
  -4   1  -2  101.75    5.47
  -4   1  -1   36.02    3.90
  -4   1   0  101.60   10.78
  -4   1   1  104.12    5.67
  -4   1   2  116.93    4.86
  -4   1   3   68.24    5.28
  -4   1   4    8.26    5.19
  -4   1   5    6.96    3.93
  -4   1   6   56.00   12.65
  -4   1   7  156.11   13.85
  -4   1   8   41.38   12.31
  -4   1   9   54.32   13.81
  -4   1  10    3.48    2.43
  -4   1  11    2.45   12.25
  -4   1  12   57.08   12.62
  -4   2 -11   37.53   18.12
  -4   2 -10   16.75   14.88
  -4   2  -9   89.75   16.36
  -4   2  -8   66.54   14.90
  -4   2  -7  125.42   14.70
  -4   2  -6   20.88    9.81
  -4   2  -5   57.56    7.12
  -4   2  -4   63.97    5.32
  -4   2  -3  109.09    6.82
  -4   2  -2  132.43    5.33
  -4   2  -1   44.38    4.99
  -4   2   0   54.71    3.87
  -4   2   1   58.88    3.65
  -4   2   2   68.30    3.00
  -4   2   3   53.07    4.24
  -4   2   4   44.21    4.07
  -4   2   5   34.39   10.16
  -4   2   6   70.91   11.60
  -4   2   7  190.74   17.22
  -4   2   8   47.48   12.85
  -4   2   9   18.49   14.18
  -4   2  10    0.39   13.90
  -4   2  11    2.53   14.85
  -4   3 -11   67.11   18.40
  -4   3 -10   31.73   15.82
  -4   3  -9   78.01   14.64
  -4   3  -8   82.94   14.31
  -4   3  -7  131.83   13.97
  -4   3  -6   40.90   11.02
  -4   3  -5  102.29    7.00
  -4   3  -4  105.60    7.44
  -4   3  -3  230.91    7.90
  -4   3  -2  234.39    7.57
  -4   3  -1  148.07    3.95
  -4   3   0  134.45   13.34
  -4   3   1  145.65    9.42
  -4   3   2  187.37   10.34
  -4   3   3  135.96    9.70
  -4   3   4  103.36    5.01
  -4   3   5   84.68    9.39
  -4   3   6  132.42   11.56
  -4   3   7  252.61   12.77
  -4   3   8   91.88   11.64
  -4   3   9   61.13   10.87
  -4   3  10   27.69   11.21
  -4   3  11   19.57   11.88
  -4   4  -6   37.38   11.77
  -4   4  -5   23.03   11.36
  -4   4  -4    6.14    7.85
  -4   4  -3   49.35    8.81
  -4   4  -2   51.13    7.92
  -4   4  -1   48.62    9.11
  -4   4   0   66.54    8.30
  -4   4   1   79.62    8.93
  -4   4   2  177.79   10.54
  -4   4   3   58.11    8.78
  -4   4   4   11.01    8.43
  -4   4   5    0.48    8.47
  -4   4   6   15.81    9.00
  -4   4   7  134.66   12.46
  -4   4   8   44.23   10.68
  -4   4   9   31.42   10.85
  -4   4  10   30.99   11.26
  -4   4  11   13.78   17.34
  -4   5  -6   23.18   13.66
  -4   5  -5   46.21   14.56
  -4   5  -4   50.07   10.98
  -4   5  -3  129.73   10.94
  -4   5  -2   84.12   10.78
  -4   5  -1   53.86    8.53
  -4   5   0   20.44    8.68
  -4   5   1   36.38    8.65
  -4   5   2   47.51   10.27
  -4   5   3   42.72    9.17
  -4   5   4   37.53    9.42
  -4   5   5   39.22    9.54
  -4   5   6   39.34   11.00
  -4   5   7  123.21   11.67
  -4   5   8   17.95   10.68
  -4   5   9    3.22   11.15
  -4   6  -6   42.27   15.19
  -4   6  -5   28.13   15.26
  -4   6  -4   30.11   10.53
  -4   6  -3   51.60   10.80
  -4   6  -2   67.54   10.13
  -4   6  -1   78.96   17.32
  -4   6   0   74.57   10.19
  -4   6   1   77.32   11.04
  -4   6   2  140.23   11.53
  -4   6   3   46.72   10.00
  -4   6   4   17.94    9.89
  -4   6   5    8.64    9.48
  -4   6   6   15.69    9.95
  -4   6   7   89.81   12.71
  -4   6   8   57.58   11.86
  -4   7  -5   40.58   17.46
  -4   7  -4   35.51   17.98
  -4   7  -3   35.74   11.11
  -4   7  -2   48.67   11.15
  -4   7  -1   38.75   10.77
  -4   7   0   32.08   10.87
  -4   7   1   32.84   10.21
  -4   7   2   68.75   11.05
  -4   7   3   35.77   10.66
  -4   7   4   30.24   10.52
  -4   7   5   10.76   10.58
  -4   7   6   17.01   14.88
  -4   7   7   59.07   17.86
  -4   8   1   20.93   13.71
  -4   8   2   29.39   14.55
  -4   8   3   15.24   13.86
  -4   8   4   18.59   13.95
  -4   8   5    9.40   14.81
  -3  -8  -1    5.77   16.78
  -3  -8   0   16.27   16.69
  -3  -8   1   19.29   16.60
  -3  -8   2    8.25   16.94
  -3  -7  -5   46.87   17.58
  -3  -7  -4   46.03   18.14
  -3  -7  -3   50.00   16.48
  -3  -7  -2  119.50   19.32
  -3  -7  -1    0.86   15.88
  -3  -7   0   71.66   17.44
  -3  -7   1   95.22   17.97
  -3  -7   2   33.61   16.53
  -3  -7   3   20.23   15.84
  -3  -7   4   12.70   11.43
  -3  -7   5   16.12   11.25
  -3  -7   6   50.98   16.86
  -3  -6  -7   99.14   18.94
  -3  -6  -6   33.48   16.29
  -3  -6  -5   52.29   18.08
  -3  -6  -4   66.95   15.60
  -3  -6  -3   52.95   16.34
  -3  -6  -2   98.53   16.24
  -3  -6  -1   44.59   16.29
  -3  -6   0  131.49   17.30
  -3  -6   1  154.88   17.98
  -3  -6   2  109.20   16.85
  -3  -6   3   37.95   15.49
  -3  -6   4   29.38   10.02
  -3  -6   5   20.04   10.58
  -3  -6   6   41.56   10.80
  -3  -6   7   94.37   12.95
  -3  -6   8   51.08   12.10
  -3  -6   9   51.08   19.08
  -3  -5  -8   34.13   16.57
  -3  -5  -7   63.69   16.70
  -3  -5  -6   31.18   15.97
  -3  -5  -5   82.07   15.23
  -3  -5  -4  112.23   17.03
  -3  -5  -3   69.84   14.10
  -3  -5  -2   81.56   15.48
  -3  -5  -1    6.22   12.19
  -3  -5   0   86.39   15.21
  -3  -5   1   60.24   14.49
  -3  -5   2   38.84   13.15
  -3  -5   3   38.84    8.85
  -3  -5   4   42.68    9.82
  -3  -5   5   31.23    9.23
  -3  -5   6   29.93    9.95
  -3  -5   7  113.01   11.38
  -3  -5   8   15.54   10.52
  -3  -5   9   11.08   10.19
  -3  -5  10    2.86   15.47
  -3  -5  11    3.31   16.75
  -3  -4  -9  107.81   20.25
  -3  -4  -8   70.28   16.76
  -3  -4  -7   99.17   10.86
  -3  -4  -6   48.81    9.17
  -3  -4  -5   64.44    8.53
  -3  -4  -4   92.49    7.36
  -3  -4  -3   65.49    6.18
  -3  -4  -2   69.05    7.81
  -3  -4  -1   90.47   14.42
  -3  -4   0  184.66   14.99
  -3  -4   1  222.84   16.13
  -3  -4   2  279.91   17.26
  -3  -4   3  104.62    9.45
  -3  -4   4   33.17    8.22
  -3  -4   5   10.17    8.00
  -3  -4   6   22.67    8.17
  -3  -4   7  201.58   12.89
  -3  -4   8   80.47    9.83
  -3  -4   9   69.58   11.10
  -3  -4  10   26.77   10.32
  -3  -4  11   25.99   14.30
  -3  -4  12   64.52   18.12
  -3  -3 -12   13.56   17.65
  -3  -3 -11   52.77   16.06
  -3  -3 -10   34.63   12.15
  -3  -3  -9  124.56   12.48
  -3  -3  -8   90.68   10.88
  -3  -3  -7  158.03   10.71
  -3  -3  -6  108.20    9.80
  -3  -3  -5  216.13    9.89
  -3  -3  -4  236.48    9.43
  -3  -3  -3  203.19    7.67
  -3  -3  -2  184.35    8.27
  -3  -3  -1  204.88   13.22
  -3  -3   0  250.46   16.66
  -3  -3   1  302.25    9.00
  -3  -3   2  390.00   23.76
  -3  -3   3  230.81    6.89
  -3  -3   4  133.22    6.05
  -3  -3   5   95.14    7.01
  -3  -3   6   47.00    5.48
  -3  -3   7  378.87    9.86
  -3  -3   8   69.35    7.10
  -3  -3   9   62.87    6.91
  -3  -3  10   13.62    8.56
  -3  -3  11   29.61    9.53
  -3  -3  12  100.20   12.28
  -3  -2 -12   13.55   18.86
  -3  -2 -11   38.42   12.18
  -3  -2 -10   24.77   10.70
  -3  -2  -9   67.03   11.03
  -3  -2  -8   43.77    9.49
  -3  -2  -7   83.17   10.06
  -3  -2  -6   61.90    8.56
  -3  -2  -5  123.26    7.00
  -3  -2  -4  153.76    8.85
  -3  -2  -3  118.06    8.18
  -3  -2  -2  114.53    4.90
  -3  -2  -1  102.95   12.61
  -3  -2   0  113.24    6.11
  -3  -2   1   99.85    6.66
  -3  -2   2  340.29    8.71
  -3  -2   3   98.96    5.08
  -3  -2   4   32.36    4.64
  -3  -2   5   21.01    4.47
  -3  -2   6    8.85    4.69
  -3  -2   7  301.88   10.96
  -3  -2   8   37.59    7.03
  -3  -2   9   40.60    8.36
  -3  -2  10    7.61    6.34
  -3  -2  11   19.11    8.96
  -3  -2  12   40.37   16.42
  -3  -2  13    1.33   17.32
  -3  -1 -12    1.42   17.15
  -3  -1 -11   40.79   11.84
  -3  -1 -10   33.96   10.21
  -3  -1  -9  112.56   19.00
  -3  -1  -8  114.67   10.55
  -3  -1  -7  130.79    9.59
  -3  -1  -6   90.91    9.79
  -3  -1  -5   95.21    8.44
  -3  -1  -4  102.60    6.30
  -3  -1  -3  106.77   10.74
  -3  -1  -2  126.46   11.30
  -3  -1  -1  157.02   12.41
  -3  -1   0  188.61    8.54
  -3  -1   1  332.95   25.97
  -3  -1   2  921.30   13.22
  -3  -1   3  239.26    8.26
  -3  -1   4   40.97    4.25
  -3  -1   5   24.28    5.10
  -3  -1   6    2.48    4.23
  -3  -1   7  415.23   10.65
  -3  -1   8   72.43    9.17
  -3  -1   9   91.43    8.45
  -3  -1  10   81.72   12.61
  -3  -1  11   59.97   15.16
  -3  -1  12   54.14   15.07
  -3  -1  13   29.74   19.50
  -3   1 -11   44.84   14.87
  -3   1 -10   35.15   11.52
  -3   1  -9   97.24   14.26
  -3   1  -8   99.10   13.43
  -3   1  -7   79.15   11.86
  -3   1  -6   57.27    8.88
  -3   1  -5   78.37   10.77
  -3   1  -4  231.15    8.22
  -3   1  -3  139.76    5.39
  -3   1  -2  162.01    5.58
  -3   1  -1  115.46    4.71
  -3   1   0  294.50    5.53
  -3   1   1  322.24   12.45
  -3   1   2  943.22   23.89
  -3   1   3  187.67    5.46
  -3   1   4   37.31    4.64
  -3   1   5   33.52    9.83
  -3   1   6   12.21    3.22
  -3   1   7  316.94   22.39
  -3   1   8   78.61    6.29
  -3   1   9   53.42   11.24
  -3   1  10   76.25   12.76
  -3   1  11   50.53   14.96
  -3   1  12   18.99   10.57
  -3   2 -11   16.74   14.72
  -3   2 -10    9.43   13.18
  -3   2  -9   29.61   13.23
  -3   2  -8   62.26   13.28
  -3   2  -7   64.34   12.31
  -3   2  -6   37.90   10.39
  -3   2  -5   62.36    4.47
  -3   2  -4  266.37    9.09
  -3   2  -3   84.16    5.20
  -3   2  -2   89.68    4.80
  -3   2  -1   57.72    4.54
  -3   2   0   94.25    4.56
  -3   2   1  109.46    2.89
  -3   2   2  545.37   11.05
  -3   2   3  114.81    5.70
  -3   2   4   50.33    5.13
  -3   2   5   74.96   11.09
  -3   2   6   38.75   10.15
  -3   2   7  183.77    7.29
  -3   2   8   49.99   13.30
  -3   2   9   25.82   12.58
  -3   2  10   42.68   14.54
  -3   2  11   40.25   14.97
  -3   2  12   32.20   16.44
  -3   3 -11   39.73   17.08
  -3   3 -10   40.18   14.44
  -3   3  -9   87.47   15.38
  -3   3  -8   98.92   14.75
  -3   3  -7   75.11   11.76
  -3   3  -6   72.22   10.78
  -3   3  -5  147.04    8.60
  -3   3  -4  463.40    9.73
  -3   3  -3  202.28    6.73
  -3   3  -2  237.89    6.42
  -3   3  -1  108.28    3.55
  -3   3   0  263.02    9.53
  -3   3   1  226.59   10.17
  -3   3   2  568.61   15.54
  -3   3   3  199.73    5.81
  -3   3   4  162.12    6.23
  -3   3   5  131.68    6.00
  -3   3   6  106.32   15.47
  -3   3   7  230.90   14.67
  -3   3   8  109.54   10.09
  -3   3   9   73.45   10.95
  -3   3  10  105.27   11.82
  -3   3  11   55.03   11.37
  -3   3  12   42.40   12.55
  -3   3  13   46.36   17.74
  -3   4 -11    8.75   14.98
  -3   4 -10   23.55   14.42
  -3   4  -9  106.90   14.99
  -3   4  -8   65.92   13.06
  -3   4  -7   58.31   11.43
  -3   4  -6   40.83   10.32
  -3   4  -5   89.75    7.29
  -3   4  -4  196.53    7.58
  -3   4  -3   65.06    5.40
  -3   4  -2  128.34    8.94
  -3   4  -1   40.14    7.07
  -3   4   0  222.84   11.07
  -3   4   1  215.65    9.45
  -3   4   2  446.16   13.90
  -3   4   3  172.11    5.02
  -3   4   4  111.41    9.11
  -3   4   5   38.47    8.51
  -3   4   6   49.11    8.46
  -3   4   7  100.92   11.02
  -3   4   8   95.45   11.69
  -3   4   9   84.00   10.69
  -3   4  10  107.25   12.71
  -3   4  11   69.83   12.52
  -3   4  12   48.68   17.97
  -3   5  -6    8.72    8.34
  -3   5  -5   45.70    8.94
  -3   5  -4  153.08   18.08
  -3   5  -3   13.24    7.90
  -3   5  -2   32.13    7.88
  -3   5  -1   21.64    7.38
  -3   5   0   52.42    7.80
  -3   5   1   27.80    7.97
  -3   5   2   91.39    8.94
  -3   5   3   45.84    8.10
  -3   5   4   72.00   14.20
  -3   5   5   25.61    7.75
  -3   5   6   32.12    9.28
  -3   5   7   34.62    9.68
  -3   5   8   32.06    9.98
  -3   5   9    4.50   10.15
  -3   5  10   24.19   11.76
  -3   5  11    4.35   17.36
  -3   6  -5   75.97   16.76
  -3   6  -4  161.23   11.14
  -3   6  -3   45.86    9.49
  -3   6  -2  113.32   10.16
  -3   6  -1   94.70    9.69
  -3   6   0   95.77   10.35
  -3   6   1  107.63   13.37
  -3   6   2  220.07   17.78
  -3   6   3  121.41   10.47
  -3   6   4  131.36   12.38
  -3   6   5   25.11    9.65
  -3   6   6   49.36   12.60
  -3   6   7   67.49   12.74
  -3   6   8  106.71   12.48
  -3   6   9   64.57   12.49
  -3   6  10   67.27   19.10
  -3   7  -5   37.30   17.15
  -3   7  -4  100.54   19.28
  -3   7  -3   21.26    8.95
  -3   7  -2   31.84    9.68
  -3   7  -1   43.61    9.83
  -3   7   0   16.72    9.24
  -3   7   1   53.91   20.37
  -3   7   2  104.00   10.76
  -3   7   3   89.76   10.41
  -3   7   4   76.45   13.01
  -3   7   5   12.99    9.47
  -3   7   6   41.37   11.99
  -3   7   7   40.39   10.81
  -3   7   8   43.21   12.25
  -3   8  -3    8.48   16.91
  -3   8  -2   12.86   16.54
  -3   8  -1   20.50   16.26
  -3   8   0   11.80   16.38
  -3   8   1    6.29   16.27
  -3   8   2   22.85   16.23
  -3   8   3   32.48   17.66
  -3   8   4   18.99    9.99
  -3   8   5    1.38   13.31
  -3   8   6    7.26   13.77
  -3   8   7   12.69   15.07
  -2  -8  -5   32.29   17.15
  -2  -8  -4   46.42   18.57
  -2  -8  -3    1.83   16.01
  -2  -8  -2    7.36   15.78
  -2  -8  -1    0.25   15.32
  -2  -8   0    0.91   15.27
  -2  -8   1   10.01   15.15
  -2  -8   2   21.13   15.89
  -2  -8   3   13.46   11.24
  -2  -8   4    9.96   11.96
  -2  -8   5   24.41   16.85
  -2  -7  -7   12.68   16.90
  -2  -7  -6   40.41   17.20
  -2  -7  -5   67.45   18.36
  -2  -7  -4   75.63   16.51
  -2  -7  -3   51.66   16.44
  -2  -7  -2   36.67   15.18
  -2  -7  -1   53.01   15.60
  -2  -7   0   62.49   15.44
  -2  -7   1   62.37   15.67
  -2  -7   2   92.96   16.28
  -2  -7   3   35.39   10.98
  -2  -7   4   28.57   10.54
  -2  -7   5   29.58   11.04
  -2  -7   6    9.63   11.06
  -2  -7   7  126.79   14.16
  -2  -6  -9   33.69   18.27
  -2  -6  -8   26.30   16.38
  -2  -6  -7   25.98   15.63
  -2  -6  -6   79.30   17.71
  -2  -6  -5  115.07   16.39
  -2  -6  -4  139.38   18.42
  -2  -6  -3   62.94   14.65
  -2  -6  -2   57.91   14.03
  -2  -6  -1   76.40   14.00
  -2  -6   0  115.70   16.94
  -2  -6   1  122.14   14.93
  -2  -6   2  262.56   13.83
  -2  -6   3  120.91   11.11
  -2  -6   4   81.74   10.82
  -2  -6   5   89.12   11.21
  -2  -6   6   50.25   10.77
  -2  -6   7  203.26   13.71
  -2  -6   8   32.59   11.66
  -2  -6   9   48.04   11.51
  -2  -5 -10   10.25   16.98
  -2  -5  -9   12.27   10.75
  -2  -5  -8   11.98   10.23
  -2  -5  -7    1.57    8.34
  -2  -5  -6   30.66    8.68
  -2  -5  -5   36.58    9.34
  -2  -5  -4  132.85   15.44
  -2  -5  -3   34.18   12.49
  -2  -5  -2    0.04   10.52
  -2  -5  -1    9.30   10.74
  -2  -5   0   26.00   11.33
  -2  -5   1   16.05    4.95
  -2  -5   2  113.25    9.53
  -2  -5   3   21.83    7.76
  -2  -5   4   28.56    8.71
  -2  -5   5   82.73    9.36
  -2  -5   6   72.12    9.93
  -2  -5   7   82.44   12.05
  -2  -5   8    0.11    9.33
  -2  -5   9    7.00   10.02
  -2  -5  10    8.10   10.10
  -2  -5  11   19.24   15.77
  -2  -4 -12   28.87   19.14
  -2  -4 -11   30.61   13.02
  -2  -4 -10   63.74   13.02
  -2  -4  -9   77.57   11.09
  -2  -4  -8   32.10    9.87
  -2  -4  -7   21.69    8.90
  -2  -4  -6   69.57    9.45
  -2  -4  -5  114.68    8.76
  -2  -4  -4  241.64   20.07
  -2  -4  -3  110.24   13.16
  -2  -4  -2  124.38   13.76
  -2  -4  -1   69.80   10.62
  -2  -4   0  261.31   17.86
  -2  -4   1  208.36   12.66
  -2  -4   2  462.14    8.48
  -2  -4   3  110.65    5.98
  -2  -4   4   54.44    6.55
  -2  -4   5  108.28    5.33
  -2  -4   6   75.35    4.41
  -2  -4   7  209.09    8.48
  -2  -4   8   49.87    7.58
  -2  -4   9   65.80    7.36
  -2  -4  10   90.01   16.64
  -2  -4  11   84.00   16.72
  -2  -4  12   51.43   16.23
  -2  -3 -12   34.92   17.24
  -2  -3 -11   31.68   11.63
  -2  -3 -10   53.57   11.45
  -2  -3  -9   71.17   11.64
  -2  -3  -8   27.31    9.30
  -2  -3  -7   47.53    8.82
  -2  -3  -6  104.76   12.42
  -2  -3  -5  224.34   10.21
  -2  -3  -4  507.93   13.53
  -2  -3  -3   88.48    4.37
  -2  -3  -2   75.98    6.21
  -2  -3  -1   14.97    9.50
  -2  -3   0  233.48   11.21
  -2  -3   1  195.39   12.28
  -2  -3   2  492.81   55.11
  -2  -3   3  170.91    4.37
  -2  -3   4  200.56    6.34
  -2  -3   5  257.54    5.36
  -2  -3   6  199.07    8.28
  -2  -3   7  238.20   10.41
  -2  -3   8   53.85    7.88
  -2  -3   9   57.38    9.92
  -2  -3  10  106.65   10.47
  -2  -3  11  105.62   16.54
  -2  -3  12   83.64   12.08
  -2  -3  13   53.93   12.06
  -2  -2 -12   18.49   12.21
  -2  -2 -11   13.75   11.33
  -2  -2 -10   44.61   11.14
  -2  -2  -9   67.04    9.80
  -2  -2  -8   47.02    9.17
  -2  -2  -7   19.54    9.27
  -2  -2  -6   17.63    7.05
  -2  -2  -5  111.81    8.36
  -2  -2  -4  405.48    9.98
  -2  -2  -3   12.49    2.84
  -2  -2  -2   40.62    6.56
  -2  -2  -1    6.20    2.74
  -2  -2   0  189.32    8.04
  -2  -2   1   75.10    4.20
  -2  -2   2  289.41    6.02
  -2  -2   3   35.61    4.16
  -2  -2   4   83.59    4.17
  -2  -2   5  143.84   19.49
  -2  -2   6  133.49    7.07
  -2  -2   7   85.22    7.78
  -2  -2   8   41.27   13.35
  -2  -2   9   49.15    8.26
  -2  -2  10   55.47    9.67
  -2  -2  11   47.09   10.62
  -2  -2  12   39.94   10.62
  -2  -2  13   24.75   11.43
  -2  -1 -12   37.96   10.87
  -2  -1 -11   18.80    9.02
  -2  -1 -10   47.53    9.63
  -2  -1  -9  189.72   19.76
  -2  -1  -8   11.62    9.15
  -2  -1  -7   26.84    5.24
  -2  -1  -6   44.67    4.31
  -2  -1  -5  227.29    7.38
  -2  -1  -4  640.10   20.78
  -2  -1  -3   40.53    7.74
  -2  -1  -2   97.63    2.63
  -2  -1  -1   95.82    6.28
  -2  -1   0  541.35    6.64
  -2  -1   1  436.55    7.59
  -2  -1   2  680.63   17.88
  -2  -1   3  210.20    4.77
  -2  -1   4  231.61   13.07
  -2  -1   5  172.81    5.99
  -2  -1   6  162.61    9.38
  -2  -1   7  147.83   12.73
  -2  -1   8   89.02    9.99
  -2  -1   9  117.95   15.54
  -2  -1  10  134.56   16.55
  -2  -1  11  109.43   15.45
  -2  -1  12  114.29   18.44
  -2  -1  13   57.64   16.74
  -2   1 -12   44.58   17.69
  -2   1 -11   33.94   11.09
  -2   1 -10   75.60    9.63
  -2   1  -9  216.88   13.21
  -2   1  -8   11.75    6.91
  -2   1  -7   22.82    6.87
  -2   1  -6   46.99    3.45
  -2   1  -5  311.71   25.77
  -2   1  -4  651.91   33.94
  -2   1  -3   34.81    3.12
  -2   1  -2  162.51    4.39
  -2   1  -1  154.06    5.93
  -2   1   0  314.95    5.83
  -2   1   1  325.32   13.83
  -2   1   2  362.26    6.19
  -2   1   3  200.45   14.61
  -2   1   4  267.78   15.65
  -2   1   6  134.55   14.06
  -2   1   7  120.37   12.24
  -2   1   8  113.03   14.03
  -2   1   9  103.84   13.50
  -2   1  10   37.47   11.82
  -2   1  11   80.81   13.54
  -2   1  12   78.15   16.73
  -2   1  13   35.39   14.41
  -2   2 -12    9.14   11.51
  -2   2 -11   10.15   10.33
  -2   2 -10   25.97   10.26
  -2   2  -9  142.79   10.87
  -2   2  -8   32.36    8.54
  -2   2  -7   12.26   10.22
  -2   2  -6    5.02    8.59
  -2   2  -5  105.16   11.91
  -2   2  -4  204.09    4.64
  -2   2  -3   45.35    3.54
  -2   2  -2   48.22    3.83
  -2   2  -1   22.03    3.04
  -2   2   0   27.91    4.86
  -2   2   1   82.08    6.69
  -2   2   2  167.16    3.34
  -2   2   3  113.82    5.85
  -2   2   4   99.92    2.27
  -2   2   5  151.10   12.60
  -2   2   6  182.10   13.08
  -2   2   7  130.80   14.41
  -2   2   8   52.87   12.73
  -2   2   9   31.84   14.18
  -2   2  10   33.19   14.06
  -2   2  11   70.20   16.28
  -2   2  12   73.99   17.45
  -2   3 -12   30.27   17.61
  -2   3 -11   47.67   15.88
  -2   3 -10  102.20   15.77
  -2   3  -9  248.58   19.87
  -2   3  -8   16.12   10.60
  -2   3  -7   66.91   12.36
  -2   3  -6   77.19   11.19
  -2   3  -5  218.28   11.34
  -2   3  -4  326.78   10.99
  -2   3  -3  162.84    6.22
  -2   3  -2  190.57    5.87
  -2   3  -1  147.86    7.25
  -2   3   0   78.28    7.04
  -2   3   1  116.72    8.70
  -2   3   2  184.56    6.09
  -2   3   3  167.64    5.59
  -2   3   4  172.81    4.83
  -2   3   5  294.46    8.75
  -2   3   6  229.70   24.54
  -2   3   7  223.32   10.67
  -2   3   8   85.87   10.30
  -2   3   9   59.61    9.33
  -2   3  10   39.08    9.71
  -2   3  11   94.73   12.35
  -2   3  12   77.80   12.40
  -2   4 -11   42.26   16.14
  -2   4 -10   40.22   14.36
  -2   4  -9  117.55   16.20
  -2   4  -8   12.03   11.37
  -2   4  -7   21.14   10.96
  -2   4  -6   48.92    9.78
  -2   4  -5  186.26   10.73
  -2   4  -4  256.34    8.44
  -2   4  -3   95.00    6.02
  -2   4  -2  100.91    7.36
  -2   4  -1   85.65    7.78
  -2   4   0  112.22    7.03
  -2   4   1  156.12    9.09
  -2   4   2  192.63    9.14
  -2   4   3  176.52   11.88
  -2   4   4  160.86    5.95
  -2   4   5  145.03   14.62
  -2   4   6   92.73    8.66
  -2   4   7  101.99   10.24
  -2   4   8   43.86    8.49
  -2   4   9   62.85   10.66
  -2   4  10   34.18    9.85
  -2   4  11  106.35   16.30
  -2   4  12   62.71   12.75
  -2   5 -11    1.40   16.08
  -2   5 -10   29.99   14.89
  -2   5  -9   73.45   14.74
  -2   5  -8   21.03   11.84
  -2   5  -7   23.36   11.23
  -2   5  -6   11.71    8.94
  -2   5  -5   16.22    6.57
  -2   5  -4   32.41   12.48
  -2   5  -3   54.33    8.20
  -2   5  -2    5.41    6.62
  -2   5  -1   29.53    6.56
  -2   5   0   20.28    6.53
  -2   5   1   26.52    4.05
  -2   5   2   38.41    4.57
  -2   5   3   17.36    6.83
  -2   5   4    3.98    7.92
  -2   5   5  199.91   10.99
  -2   5   6   65.82    8.91
  -2   5   7   60.26    9.16
  -2   5   8    7.88    8.83
  -2   5   9    6.61    9.20
  -2   5  10    4.70   10.37
  -2   5  11   25.86   11.39
  -2   6  -4  163.90   17.11
  -2   6  -3  118.19    9.55
  -2   6  -2   80.46    7.92
  -2   6  -1   80.34    9.20
  -2   6   0  108.02   11.58
  -2   6   1   77.35    8.78
  -2   6   2   86.56    8.63
  -2   6   3   73.57    8.49
  -2   6   4   84.39    9.21
  -2   6   5  127.60   10.49
  -2   6   6   83.02   10.19
  -2   6   7   76.61   10.51
  -2   6   8   51.80   10.51
  -2   6   9   52.97   11.52
  -2   6  10   22.15   11.24
  -2   7  -4   44.82   16.97
  -2   7  -3   49.40   16.97
  -2   7  -2   20.98   15.12
  -2   7  -1   40.40    7.70
  -2   7   0   63.29    8.43
  -2   7   1   57.42    8.45
  -2   7   2   44.47    8.17
  -2   7   3   31.13    8.18
  -2   7   4   26.87    8.52
  -2   7   5   69.90   10.17
  -2   7   6   33.09    9.64
  -2   7   7   25.85   11.86
  -2   7   8   24.38   10.44
  -2   7   9   16.02   15.68
  -2   8  -4    3.16   16.60
  -2   8  -3    1.53   15.99
  -2   8  -2    0.65   15.80
  -2   8  -1   24.68   16.48
  -2   8   0   18.14   16.36
  -2   8   1   21.40   16.29
  -2   8   2    4.60   15.65
  -2   8   3    2.97   15.91
  -2   8   4    4.15   15.56
  -2   8   5   41.66   17.26
  -2   8   6   21.74   17.96
  -2   8   7    9.02   16.90
  -1  -9  -4   81.14   20.33
  -1  -9  -3    5.70   17.51
  -1  -9  -2   14.90   16.48
  -1  -9  -1   18.80   16.86
  -1  -9   0   15.29   15.57
  -1  -9   1   12.35   15.51
  -1  -9   2   35.88   17.91
  -1  -9   3   15.34   17.20
  -1  -9   4   26.41   17.36
  -1  -8  -7    0.66   16.56
  -1  -8  -6    2.58   11.47
  -1  -8  -5   16.53   15.56
  -1  -8  -4   21.57   16.15
  -1  -8  -3    1.10   14.29
  -1  -8  -2    3.18   13.89
  -1  -8  -1    1.47   14.26
  -1  -8   0    6.40   14.05
  -1  -8   1   14.48   14.46
  -1  -8   2   18.08   10.36
  -1  -8   3    7.68   10.38
  -1  -8   4   22.18   12.90
  -1  -8   5   31.58   12.00
  -1  -8   6   32.19   15.53
  -1  -8   7    1.19   15.28
  -1  -7  -9   46.54   18.94
  -1  -7  -8    6.14   15.85
  -1  -7  -7   18.49   14.96
  -1  -7  -6   34.81   11.28
  -1  -7  -5   52.53   14.94
  -1  -7  -4   77.91   16.93
  -1  -7  -3   12.96   13.85
  -1  -7  -2   40.52   13.84
  -1  -7  -1   29.60   13.91
  -1  -7   0   57.17   12.96
  -1  -7   1   30.29    9.39
  -1  -7   2   46.28   10.10
  -1  -7   3   13.52    9.32
  -1  -7   4   33.02   10.36
  -1  -7   5   58.76   10.93
  -1  -7   6   64.10   11.79
  -1  -7   7   16.16   20.37
  -1  -7   8   19.83   15.76
  -1  -6 -10   80.82   10.78
  -1  -6  -9   74.01   12.77
  -1  -6  -8    9.14   14.96
  -1  -6  -7   22.38   14.38
  -1  -6  -6   86.21   11.17
  -1  -6  -5  165.49   17.92
  -1  -6  -4  249.90   17.33
  -1  -6  -3   28.44   12.74
  -1  -6  -2   62.87   13.32
  -1  -6  -1   52.79   12.52
  -1  -6   0  104.58   14.36
  -1  -6   1   65.44    9.31
  -1  -6   2   63.16    9.38
  -1  -6   3   43.52    9.22
  -1  -6   4  109.42    9.76
  -1  -6   5  119.85   11.43
  -1  -6   6   87.61   10.63
  -1  -6   7   34.71   17.42
  -1  -6   8   29.78   12.07
  -1  -6   9   26.15   11.32
  -1  -6  10   26.03   15.10
  -1  -5 -11   20.44   12.84
  -1  -5 -10   70.64   12.76
  -1  -5  -9  118.71   13.06
  -1  -5  -8    6.45    9.48
  -1  -5  -7   16.91   12.77
  -1  -5  -6   11.43   11.69
  -1  -5  -5   24.73   11.54
  -1  -5  -4   43.52   12.69
  -1  -5  -3   29.27    6.77
  -1  -5  -2   13.26    4.82
  -1  -5  -1   56.63   11.68
  -1  -5   0  107.52    8.83
  -1  -5   1   30.59    7.13
  -1  -5   2   10.93    7.02
  -1  -5   3   14.68    7.13
  -1  -5   4   27.39    3.28
  -1  -5   5  114.22    6.41
  -1  -5   6   82.29    9.17
  -1  -5   7   24.28    8.83
  -1  -5   8   10.33    9.27
  -1  -5   9   13.47    9.54
  -1  -5  10    6.84   10.31
  -1  -5  11   38.16   17.41
  -1  -4 -12   43.41   20.43
  -1  -4 -11   46.75   12.86
  -1  -4 -10   82.34   13.13
  -1  -4  -9  137.12   11.77
  -1  -4  -8   14.25    8.98
  -1  -4  -7   28.61   12.67
  -1  -4  -6   94.83   12.97
  -1  -4  -5  314.88   19.51
  -1  -4  -4  448.86   16.92
  -1  -4  -3   41.83    6.67
  -1  -4  -2  116.51    7.75
  -1  -4  -1   70.64    4.54
  -1  -4   0   78.73    7.05
  -1  -4   1   54.27    7.53
  -1  -4   2   57.92    5.00
  -1  -4   3   65.83    9.69
  -1  -4   4  188.47    4.12
  -1  -4   5  171.69    5.44
  -1  -4   6  120.42   10.49
  -1  -4   7   61.54    8.04
  -1  -4   8   17.29    7.84
  -1  -4   9   33.52    9.63
  -1  -4  10    3.90    9.29
  -1  -4  11   54.69   11.57
  -1  -4  12   47.52   12.39
  -1  -3 -12   28.14   26.00
  -1  -3 -11  101.69   13.29
  -1  -3 -10  199.25   13.83
  -1  -3  -9  327.24   15.07
  -1  -3  -8   10.07    8.97
  -1  -3  -7  139.54   34.65
  -1  -3  -6  188.50   10.85
  -1  -3  -5  363.16   15.00
  -1  -3  -4  350.97   10.54
  -1  -3  -3  110.45    6.18
  -1  -3  -2  194.23    5.58
  -1  -3  -1  288.68    5.40
  -1  -3   0  392.39   11.80
  -1  -3   1  235.10    8.26
  -1  -3   2  119.74    5.67
  -1  -3   3   90.70    2.89
  -1  -3   4  129.60    5.71
  -1  -3   5  333.27   12.88
  -1  -3   6  216.75    6.76
  -1  -3   7  163.38   11.72
  -1  -3   8   54.89   12.91
  -1  -3   9   79.75   13.14
  -1  -3  10   38.45   14.10
  -1  -3  11  112.42   17.53
  -1  -3  12   77.86   16.84
  -1  -3  13   36.92   18.30
  -1  -2 -12    8.73   11.38
  -1  -2 -11   80.51   12.62
  -1  -2 -10  135.68   12.01
  -1  -2  -9  272.10   10.16
  -1  -2  -8   15.77    8.31
  -1  -2  -7   63.17    8.56
  -1  -2  -6   71.58    7.47
  -1  -2  -5  168.53   10.08
  -1  -2  -4  166.32    5.03
  -1  -2  -3   30.43    3.20
  -1  -2  -2  131.32    4.70
  -1  -2  -1  175.11    6.34
  -1  -2   0  166.12    5.05
  -1  -2   1   69.45    3.71
  -1  -2   2   12.15    2.66
  -1  -2   3   32.75    4.20
  -1  -2   4   40.52    3.81
  -1  -2   5  261.87    6.75
  -1  -2   6  153.32    7.12
  -1  -2   7  116.61    7.59
  -1  -2   8   13.37   10.58
  -1  -2   9   62.87   13.23
  -1  -2  10   18.67   14.03
  -1  -2  11   76.31   15.23
  -1  -2  12   34.36   17.16
  -1  -2  13    7.44   16.12
  -1  -1 -12   55.41   10.60
  -1  -1 -11  133.83   12.43
  -1  -1 -10   96.63   11.05
  -1  -1  -9  164.04   11.10
  -1  -1  -8   93.44   11.46
  -1  -1  -7   57.77    9.66
  -1  -1  -6  197.01   15.10
  -1  -1  -5  604.36   18.64
  -1  -1  -4  675.17   26.15
  -1  -1  -3  239.31    9.68
  -1  -1  -2  370.04   14.49
  -1  -1  -1  174.39    2.80
  -1  -1   0  202.40    7.19
  -1  -1   1   77.92    3.01
  -1  -1   2   82.80    3.48
  -1  -1   3  392.09   15.57
  -1  -1   4  413.66   37.97
  -1  -1   5  396.67   15.28
  -1  -1   6  168.83    6.34
  -1  -1   7  137.41    6.11
  -1  -1   8    5.66    4.77
  -1  -1   9   21.35    7.62
  -1  -1  10   25.31   24.41
  -1  -1  11   35.71   13.55
  -1  -1  12   32.48   14.71
  -1  -1  13   43.07   15.30
  -1   1 -12   44.91   10.45
  -1   1 -11  117.83   16.49
  -1   1 -10  119.97   11.50
  -1   1  -9  143.84    9.68
  -1   1  -8   60.57   13.26
  -1   1  -7   72.30   12.89
  -1   1  -6  197.87   10.04
  -1   1  -5  423.21   10.57
  -1   1  -4  546.86   11.58
  -1   1  -3  470.26    6.31
  -1   1  -2  462.07    6.38
  -1   1  -1  354.29    3.23
  -1   1   0  823.85   22.42
  -1   1   1   27.21    4.34
  -1   1   2  112.35    4.22
  -1   1   3  460.79    7.55
  -1   1   4  315.73    7.49
  -1   1   5  588.25   19.56
  -1   1   6  181.66   13.01
  -1   1   7  113.57   12.85
  -1   1   8   13.43    8.89
  -1   1   9   93.69   14.89
  -1   1  10   23.76   11.14
  -1   1  11   42.66   12.70
  -1   1  12   22.81   11.53
  -1   1  13   55.01   16.78
  -1   2 -12   35.49   11.67
  -1   2 -11   97.60   12.34
  -1   2 -10  103.08   10.75
  -1   2  -9  106.32   12.14
  -1   2  -8  109.63   10.40
  -1   2  -7   60.28    8.59
  -1   2  -6   74.30    7.59
  -1   2  -5  111.43    7.50
  -1   2  -4  197.91   12.31
  -1   2  -3  156.04    6.64
  -1   2  -2  154.07    4.54
  -1   2  -1  249.20   10.11
  -1   2   0 1143.27   12.01
  -1   2   1  215.71    5.95
  -1   2   2  138.17    5.46
  -1   2   3  121.43    9.59
  -1   2   4   21.22    3.85
  -1   2   5  404.83   16.95
  -1   2   6   86.15   12.07
  -1   2   7   89.02   12.06
  -1   2   8   32.56   12.42
  -1   2   9   49.45   12.69
  -1   2  10   30.82   15.49
  -1   2  11   34.74   14.78
  -1   2  12   30.86   10.18
  -1   3 -12   35.67   11.94
  -1   3 -11  104.49   12.71
  -1   3 -10  172.99   13.87
  -1   3  -9  238.86   12.64
  -1   3  -8  195.11   15.70
  -1   3  -7  138.07   12.96
  -1   3  -6  142.03   12.19
  -1   3  -5  212.83   13.05
  -1   3  -4  288.89   11.64
  -1   3  -3  272.96    6.99
  -1   3  -2  194.46    5.50
  -1   3  -1  283.38    5.99
  -1   3   0 1803.99   13.93
  -1   3   1  517.06   27.49
  -1   3   2  218.16    5.31
  -1   3   3   20.89    3.73
  -1   3   4   71.41    4.58
  -1   3   5  623.50   19.93
  -1   3   6  229.80    9.72
  -1   3   7  139.46    9.61
  -1   3   8  104.66    8.52
  -1   3   9  100.05   10.86
  -1   3  10   56.89    9.32
  -1   3  11   60.09   11.07
  -1   3  12   41.30   17.97
  -1   4 -12   57.73   17.67
  -1   4 -11   66.74   17.60
  -1   4 -10   62.31   15.28
  -1   4  -9   47.26   13.71
  -1   4  -8   46.57   12.97
  -1   4  -7   11.44    9.97
  -1   4  -6   72.11   11.00
  -1   4  -5  191.11   12.51
  -1   4  -4  343.43   12.30
  -1   4  -3  269.05    7.43
  -1   4  -2   97.09    5.20
  -1   4  -1   81.24    8.89
  -1   4   0  533.10   13.07
  -1   4   1   27.13    3.92
  -1   4   2   34.37    5.66
  -1   4   3   61.06    6.56
  -1   4   4  112.40    7.78
  -1   4   5  379.28   12.09
  -1   4   6  102.22    9.63
  -1   4   7   23.98    7.45
  -1   4   8   44.93   12.71
  -1   4   9   10.85    8.04
  -1   4  10    8.26    9.72
  -1   4  11   12.14   10.04
  -1   4  12    0.57   16.86
  -1   5 -11    1.60   15.33
  -1   5 -10   73.56   16.26
  -1   5  -9  105.23   16.46
  -1   5  -8   98.08   13.75
  -1   5  -7   21.28   11.01
  -1   5  -6   20.97    9.62
  -1   5  -5   80.80   10.28
  -1   5  -4   53.63    7.57
  -1   5  -3   31.06    7.39
  -1   5  -2   31.46    5.27
  -1   5  -1   67.51    5.71
  -1   5   0  681.61   10.01
  -1   5   1  118.40    7.47
  -1   5   2   45.35    5.16
  -1   5   3    0.40    5.66
  -1   5   4    4.76    6.34
  -1   5   5   76.78    8.38
  -1   5   6   38.06    7.59
  -1   5   7   25.97   11.52
  -1   5   8   83.75    9.24
  -1   5   9   32.81    9.82
  -1   5  10   12.95   12.08
  -1   5  11    6.72   16.30
  -1   6  -5  193.96   14.21
  -1   6  -4  174.22   11.65
  -1   6  -3   91.57    9.75
  -1   6  -2   53.47    5.84
  -1   6  -1   35.48    5.58
  -1   6   0  370.29   12.11
  -1   6   1   33.35    5.16
  -1   6   2   36.33    6.22
  -1   6   3   39.80    7.69
  -1   6   4  105.54    9.08
  -1   6   5  194.20   10.70
  -1   6   6   82.32    9.99
  -1   6   7   27.73    8.68
  -1   6   8   69.14   10.67
  -1   6   9   18.09    9.50
  -1   6  10    6.00   14.78
  -1   7  -4   69.56   14.31
  -1   7  -3   42.01   10.42
  -1   7  -2   29.01    9.34
  -1   7  -1   34.14   10.20
  -1   7   0  232.19   18.50
  -1   7   1   26.23   10.92
  -1   7   2   27.17    6.33
  -1   7   3   18.06    7.29
  -1   7   4   33.13    7.94
  -1   7   5   58.90    9.61
  -1   7   6   38.14    9.07
  -1   7   7   10.02    8.84
  -1   7   8   72.20   11.22
  -1   7   9    7.96   15.30
  -1   8  -3   21.39   16.53
  -1   8  -2    7.68   15.32
  -1   8  -1   18.29   15.50
  -1   8   0  183.49   22.03
  -1   8   1   23.97   15.06
  -1   8   2   16.75   14.76
  -1   8   3    3.76   15.43
  -1   8   4    0.83   15.07
  -1   8   5   17.31   15.27
  -1   8   6   34.65   16.71
  -1   8   7   16.92   17.61
   0  -9   2    3.41   15.64
   0  -8  -5   16.29   14.30
   0  -8  -4    9.11   13.67
   0  -8  -3    7.52   12.95
   0  -8  -2   16.14   13.24
   0  -8  -1   77.89   15.74
   0  -8   0   84.28   15.02
   0  -8   1   60.59   10.46
   0  -8   2    1.06    9.91
   0  -8   3    0.44    9.24
   0  -8   4    2.92   10.09
   0  -8   5   20.06   12.55
   0  -8   6   16.70   14.78
   0  -8   7    9.78   13.95
   0  -8   8    9.58   16.66
   0  -7 -10   69.15   18.73
   0  -7  -9   71.73   12.73
   0  -7  -8   43.93   11.55
   0  -7  -7   57.53   14.79
   0  -7  -6   71.26   14.99
   0  -7  -5   73.95   15.20
   0  -7  -4   33.83   12.69
   0  -7  -3   43.34   14.20
   0  -7  -2   46.85   12.50
   0  -7  -1   89.52   13.07
   0  -7   0   99.72   11.95
   0  -7   1   55.19    9.42
   0  -7   2   14.34    8.45
   0  -7   3   36.40    8.78
   0  -7   4   52.53    9.71
   0  -7   5  107.15   11.77
   0  -7   6   42.98    9.67
   0  -7   7   20.87   10.23
   0  -7   8    7.45   10.31
   0  -7   9   30.46   15.27
   0  -6 -11   87.71   19.25
   0  -6 -10   52.59   11.81
   0  -6  -9   46.03   12.25
   0  -6  -8   82.85   11.58
   0  -6  -7   80.05   14.92
   0  -6  -6  128.47   14.55
   0  -6  -5  158.42   15.18
   0  -6  -4  145.72   15.62
   0  -6  -3  104.66   12.88
   0  -6  -2   99.41   12.01
   0  -6  -1  155.11   14.06
   0  -6   0  192.74   10.66
   0  -6   1   85.10    8.80
   0  -6   2   23.11   10.45
   0  -6   3   34.57    7.84
   0  -6   4   71.96   15.98
   0  -6   5  201.06   11.16
   0  -6   6   56.38    9.82
   0  -6   7   38.76   10.34
   0  -6   8    6.60    9.47
   0  -6   9   30.08   10.50
   0  -6  10    7.98   14.23
   0  -5 -11   90.26   32.55
   0  -5 -10   78.60   11.89
   0  -5  -9  131.47   11.46
   0  -5  -8  186.95   12.17
   0  -5  -7   85.45   14.34
   0  -5  -6   65.53   11.84
   0  -5  -5   41.69    8.24
   0  -5  -4   14.33    9.54
   0  -5  -3   70.85   11.74
   0  -5  -2  104.71    9.93
   0  -5  -1  230.58   10.14
   0  -5   0  528.77   18.52
   0  -5   1  192.26   14.78
   0  -5   2   34.83    2.71
   0  -5   3    2.41    2.93
   0  -5   4    1.89    4.20
   0  -5   5  149.17    9.30
   0  -5   6   27.24    5.75
   0  -5   7   52.61    7.37
   0  -5   8   28.54    8.36
   0  -5   9   85.53   16.07
   0  -5  10   30.58   15.81
   0  -5  11   32.70   18.21
   0  -4 -12   29.56   14.19
   0  -4 -11   57.04   12.21
   0  -4 -10   31.69    7.94
   0  -4  -9   34.65    9.51
   0  -4  -8  141.12   11.46
   0  -4  -7   68.45   12.18
   0  -4  -6  131.96   13.24
   0  -4  -5  208.64   13.46
   0  -4  -4  182.84   14.33
   0  -4  -3  128.40    6.67
   0  -4  -2   80.28    5.76
   0  -4  -1   60.28    5.06
   0  -4   0  380.19   10.60
   0  -4   1   29.25    3.02
   0  -4   2   27.46    3.04
   0  -4   3   41.65    3.24
   0  -4   4   99.95    5.94
   0  -4   5  484.05   11.55
   0  -4   6   92.51    8.65
   0  -4   7   36.26    9.94
   0  -4   8    4.57   10.47
   0  -4   9   40.98   12.39
   0  -4  10   22.55   14.40
   0  -4  11   56.95   15.44
   0  -4  12   14.06   17.38
   0  -4  13   50.29   19.15
   0  -3 -12   69.96   12.94
   0  -3 -11  149.21   14.37
   0  -3 -10  132.29    9.13
   0  -3  -9  183.79   11.78
   0  -3  -8  415.56   12.54
   0  -3  -7  229.31   16.33
   0  -3  -6  274.00   15.47
   0  -3  -5  380.06   16.61
   0  -3  -4  297.95   11.96
   0  -3  -3  274.53   18.28
   0  -3  -2  385.51    6.90
   0  -3  -1  768.73   20.46
   0  -3   0 3262.51   17.59
   0  -3   1  747.46   19.86
   0  -3   2  265.47    5.42
   0  -3   3   38.19    2.87
   0  -3   4   83.99    4.27
   0  -3   5  602.74   11.15
   0  -3   6  147.84    5.65
   0  -3   7  158.77   13.59
   0  -3   8  119.08   12.80
   0  -3   9  204.38   19.17
   0  -3  10   88.33   15.43
   0  -3  11   74.35   17.31
   0  -3  12    0.47   16.47
   0  -3  13   25.74   18.07
   0  -2 -13   16.60   13.89
   0  -2 -12   18.75   11.68
   0  -2 -11   63.86   11.57
   0  -2 -10   70.78   16.26
   0  -2  -9  101.18    6.82
   0  -2  -8  331.89   35.24
   0  -2  -7   96.14   13.40
   0  -2  -6   87.69   11.25
   0  -2  -5  185.19   12.20
   0  -2  -4  110.45    7.37
   0  -2  -3   59.95    3.93
   0  -2  -2  139.03    4.71
   0  -2  -1  206.68    6.19
   0  -2   0 3295.41   87.52
   0  -2   1  192.82    2.32
   0  -2   2   62.70    8.37
   0  -2   3    0.28    2.64
   0  -2   4   63.49    5.94
   0  -2   5  588.52    7.83
   0  -2   6   74.09    3.33
   0  -2   7   56.56    9.99
   0  -2   8   73.42   14.67
   0  -2   9  108.17   13.46
   0  -2  10   73.62   16.09
   0  -2  11   33.79   15.32
   0  -2  12   18.51   15.79
   0  -2  13   45.26   18.09
   0  -1 -13   67.90   13.97
   0  -1 -12   46.47   11.76
   0  -1 -11   47.17   10.27
   0  -1 -10   37.25   10.73
   0  -1  -9   42.08    4.93
   0  -1  -8   82.90    4.11
   0  -1  -7   42.13    4.10
   0  -1  -6  138.31    6.15
   0  -1  -5  718.74   24.81
   0  -1  -4  497.85    7.76
   0  -1  -3  166.18    5.35
   0  -1  -2   50.75    3.97
   0  -1  -1  226.39    2.75
   0  -1   0 2499.81   20.39
   0  -1   1   33.85    3.57
   0  -1   2    5.25    3.92
   0  -1   3   16.28    3.94
   0  -1   4  267.32   21.71
   0  -1   5  837.51   20.46
   0  -1   6   68.83    8.83
   0  -1   7   24.96    9.64
   0  -1   8   58.26    9.53
   0  -1   9   46.65   13.98
   0  -1  10   41.59   10.01
   0  -1  11   52.43   15.94
   0  -1  12   11.91    9.54
   0  -1  13   48.62   17.16
   0   1 -13   50.19   16.50
   0   1 -12   13.66   10.82
   0   1 -11   14.48   11.91
   0   1 -10   49.33    8.80
   0   1  -9   52.24   10.45
   0   1  -8   51.29    5.73
   0   1  -7   24.96    4.90
   0   1  -6   89.97    7.14
   0   1  -5  864.19   40.12
   0   1  -4  237.46   15.18
   0   1  -3   19.86    4.09
   0   1  -2    3.59    2.67
   0   1  -1   32.83    5.85
   0   1   0 2450.83   10.06
   0   1   1  206.43    3.24
   0   1   2   64.37    3.51
   0   1   3  173.58    6.70
   0   1   4  462.35   11.70
   0   1   5  597.84   18.77
   0   1   6   98.07   11.02
   0   1   7   30.49   10.04
   0   1   8   61.71   12.15
   0   1   9    5.11    6.75
   0   1  10   44.00   14.50
   0   1  11   53.64   14.96
   0   1  12   24.41   13.20
   0   1  13   39.51   14.41
   0   2 -12    6.87   10.56
   0   2 -11   38.95   10.26
   0   2 -10   50.86   10.68
   0   2  -9   80.51    8.90
   0   2  -8   65.19   10.09
   0   2  -7   57.09    7.91
   0   2  -6   76.64    4.73
   0   2  -5  557.54   21.52
   0   2  -4   62.59    3.86
   0   2  -3    2.60    3.27
   0   2  -2   60.24   18.02
   0   2  -1  185.47    3.21
   0   2   0 3276.57   58.77
   0   2   1  238.56    9.90
   0   2   2  139.99    8.60
   0   2   3   67.24    4.07
   0   2   4  104.46    5.90
   0   2   5  167.59   15.08
   0   2   6   87.78    6.85
   0   2   7   95.77    7.15
   0   2   8  279.89   11.90
   0   2   9  119.44   15.49
   0   2  10   71.47    9.30
   0   2  11   69.88   16.89
   0   2  12   16.77   17.40
   0   3 -12   16.88   11.78
   0   3 -11   68.21   12.00
   0   3 -10   92.82   10.42
   0   3  -9  176.01   13.25
   0   3  -8  108.05    9.50
   0   3  -7  156.27    9.21
   0   3  -6  154.04    5.68
   0   3  -5  562.19   18.99
   0   3  -4   74.08    5.82
   0   3  -3   44.80    7.56
   0   3  -2  260.75    7.69
   0   3  -1  795.60   24.30
   0   3   0 3329.10   38.59
   0   3   1  794.57   20.71
   0   3   2  421.33    8.45
   0   3   3  277.68    8.01
   0   3   4  297.03    6.72
   0   3   5  353.28    8.78
   0   3   6  275.65   12.62
   0   3   7  224.89   16.26
   0   3   8  371.54   11.63
   0   3   9  154.31   10.53
   0   3  10  144.61   10.89
   0   3  11  130.42   18.97
   0   3  12   90.26   19.08
   0   4 -12   29.34   17.17
   0   4 -11   21.17   14.73
   0   4 -10   21.03   13.89
   0   4  -9   13.20   12.73
   0   4  -8    5.76   11.26
   0   4  -7   45.08    6.17
   0   4  -6   80.96    7.19
   0   4  -5  466.63   10.96
   0   4  -4   92.93    9.56
   0   4  -3   50.55    8.44
   0   4  -2   32.46    6.75
   0   4  -1   51.84    3.44
   0   4   0  363.32   12.19
   0   4   1   80.75    5.75
   0   4   2   89.89    5.27
   0   4   3  146.62    8.79
   0   4   4  165.91    7.47
   0   4   5  203.71    7.40
   0   4   6  139.37    7.17
   0   4   7   70.69    7.89
   0   4   8   98.65    9.70
   0   4   9   43.43    9.03
   0   4  10   21.82   13.97
   0   4  11   78.30   18.61
   0   4  12   42.40   19.26
   0   5 -11   24.11   16.18
   0   5 -10   18.69   13.64
   0   5  -9   80.63   16.72
   0   5  -7   62.98    9.98
   0   5  -6   37.66    8.58
   0   5  -5  145.50   12.50
   0   5  -4    1.89    9.16
   0   5  -3    2.77    9.39
   0   5  -2   48.94    7.26
   0   5  -1  206.90   13.82
   0   5   0  545.27    9.06
   0   5   1  251.70    7.39
   0   5   2  111.01    7.77
   0   5   3   48.73    7.08
   0   5   4   17.94    7.02
   0   5   5   41.04    6.15
   0   5   6   64.62    6.80
   0   5   7   84.81    9.09
   0   5   8  163.87   10.47
   0   5   9  112.03   16.49
   0   5  10   92.26   18.44
   0   5  11   62.60   18.41
   0   6  -6   78.38   12.51
   0   6  -5  244.63   15.64
   0   6  -4   69.55   13.33
   0   6  -3   53.55   12.36
   0   6  -2   18.75   11.44
   0   6  -1   71.65   12.87
   0   6   0  186.05   14.35
   0   6   1  147.52    6.60
   0   6   2  102.38    6.14
   0   6   3   93.76    7.98
   0   6   4  115.52    7.83
   0   6   5  166.00    8.47
   0   6   6  138.38   16.16
   0   6   7   78.05    9.61
   0   6   8   54.58    9.32
   0   6   9   52.98   15.13
   0   6  10   22.77   15.17
   0   6  11   56.41   18.88
   0   7  -6   52.50   13.46
   0   7  -5  127.09   16.82
   0   7  -4   44.32   13.98
   0   7  -3   35.10   13.39
   0   7  -2   20.27    9.53
   0   7  -1   59.39   10.42
   0   7   0   99.20   11.52
   0   7   1  102.56   10.89
   0   7   2   58.56   10.67
   0   7   3   24.98   12.52
   0   7   4   52.72   10.53
   0   7   5   57.91   11.26
   0   7   6   53.16   14.93
   0   7   7   51.60    9.76
   0   7   8   32.40   13.69
   0   7   9   56.32   15.15
   0   7  10   35.86   16.93
   0   8  -5   22.23   13.72
   0   8  -4    1.15   14.16
   0   8  -3    1.29   13.94
   0   8  -2    2.24   13.96
   0   8  -1   51.60   11.51
   0   8   0   83.91   15.85
   0   8   1   74.53   12.55
   0   8   2   40.74   11.28
   0   8   3    7.52   10.74
   0   8   4   14.49   10.73
   0   8   5   28.41   15.12
   0   8   6   24.84   14.92
   0   9  -4   40.82   17.52
   0   9  -3   26.84   17.78
   0   9  -2   16.01   17.83
   0   9  -1   18.91   18.07
   0   9   0   18.16   12.48
   0   9   1   25.46   17.30
   0   9   2   30.82   18.07
   0   9   3   12.86   18.25
   0   9   4   54.18   18.75
   0   9   5   53.75   18.63
   1  -9  -1    2.04   19.15
   1  -9   0   40.06   18.36
   1  -9   1   12.07   11.88
   1  -9   2   14.78   10.47
   1  -9   3   33.81   16.56
   1  -8  -6   23.92   18.58
   1  -8  -5   11.36   17.18
   1  -8  -4   10.99   16.96
   1  -8  -3    3.37   16.56
   1  -8   0  161.39   18.13
   1  -8   1   27.82   12.15
   1  -8   2   10.65   12.72
   1  -8   3    3.66    9.32
   1  -8   4    4.89    9.81
   1  -8   5   20.64   15.29
   1  -7  -9   25.94   18.13
   1  -7  -8   91.39   19.73
   1  -7  -7   21.20   16.06
   1  -7  -6   24.69   16.04
   1  -7  -5   55.25   17.34
   1  -7  -4   29.28    9.01
   1  -7  -3   28.88   11.55
   1  -7  -2   33.22    9.89
   1  -7  -1   26.94    8.46
   1  -7   0  249.33   10.06
   1  -7   1   28.43    8.10
   1  -7   2   41.77    8.13
   1  -7   3   60.06    8.70
   1  -7   4   72.78    7.73
   1  -7   5  108.05   10.10
   1  -7   6   27.07    9.46
   1  -7   7   15.03    9.61
   1  -7   8   24.15   12.50
   1  -7   9   45.18   15.82
   1  -6 -11   26.49   17.40
   1  -6 -10   11.09   10.14
   1  -6  -9    3.04    9.85
   1  -6  -8   83.52   12.29
   1  -6  -7   41.42   11.46
   1  -6  -6  100.70   12.39
   1  -6  -5  255.47   11.99
   1  -6  -4  126.50    8.77
   1  -6  -3   39.47   10.16
   1  -6  -2   53.15   10.40
   1  -6  -1   40.30    6.06
   1  -6   0  353.71   13.34
   1  -6   1   41.55    7.05
   1  -6   2   55.13    9.12
   1  -6   3  106.27    6.29
   1  -6   4  170.89   16.05
   1  -6   5  185.05    8.43
   1  -6   6   58.17    9.27
   1  -6   7   21.31    8.59
   1  -6   8   37.00   10.32
   1  -6   9   45.40   10.74
   1  -6  10   51.15   14.08
   1  -5 -12   22.08   16.11
   1  -5 -11   30.07   16.00
   1  -5 -10   20.81    9.69
   1  -5  -9   48.29   10.40
   1  -5  -8   96.92    9.79
   1  -5  -7   26.99   10.10
   1  -5  -6   17.16    7.22
   1  -5  -5   87.54   10.14
   1  -5  -4    4.02    7.89
   1  -5  -3    0.52    7.83
   1  -5  -2   45.25    7.62
   1  -5  -1  113.77    8.25
   1  -5   0  668.07   11.32
   1  -5   1   74.70    8.68
   1  -5   2   35.83    5.79
   1  -5   3   33.45    4.65
   1  -5   4   44.56    5.09
   1  -5   5   66.82    5.39
   1  -5   6   16.35    4.78
   1  -5   7   29.64    9.00
   1  -5   8   88.91   13.48
   1  -5   9  103.63   15.98
   1  -5  10   72.86   16.85
   1  -5  11   52.47   17.59
   1  -4 -12   23.97   12.46
   1  -4 -11    3.19   13.80
   1  -4 -10    9.78    9.02
   1  -4  -9   21.92    8.24
   1  -4  -8   29.82    8.76
   1  -4  -7   33.15    7.73
   1  -4  -6  115.80    9.22
   1  -4  -5  399.43   12.05
   1  -4  -4  130.96    8.17
   1  -4  -3   67.20    8.78
   1  -4  -2   37.34    8.14
   1  -4  -1   35.44    4.58
   1  -4   0  501.19   17.80
   1  -4   1  108.52    5.87
   1  -4   2  108.68    3.69
   1  -4   3  292.06    7.64
   1  -4   4  374.94   10.53
   1  -4   5  224.49    8.47
   1  -4   6   76.93   11.54
   1  -4   7   43.48   11.50
   1  -4   8   44.01   12.94
   1  -4   9   58.17   14.36
   1  -4  10   77.16   15.88
   1  -4  11   48.60   16.60
   1  -4  12   49.85   19.34
   1  -3 -13   86.67   18.23
   1  -3 -12   39.06   12.11
   1  -3 -11   57.40   12.23
   1  -3 -10   68.17    8.41
   1  -3  -9  122.88   10.70
   1  -3  -8  108.96    8.51
   1  -3  -7  156.23    9.81
   1  -3  -6  224.57    9.65
   1  -3  -5  597.26   13.53
   1  -3  -4   70.29    6.09
   1  -3  -3   33.76    8.71
   1  -3  -2  243.55    6.48
   1  -3  -1  491.65   11.42
   1  -3   0 1774.94   22.32
   1  -3   1  292.76    4.35
   1  -3   2  210.41   14.04
   1  -3   3  264.75    5.00
   1  -3   4  313.92    8.46
   1  -3   5  201.82    5.52
   1  -3   6  133.76    4.03
   1  -3   7  148.40   14.01
   1  -3   8  189.17   15.95
   1  -3   9  234.20   18.05
   1  -3  10  220.78   20.94
   1  -3  11  112.46   18.45
   1  -3  12   33.00   17.17
   1  -2 -13   43.43   13.79
   1  -2 -12   10.25   10.55
   1  -2 -11   42.67   10.85
   1  -2 -10   21.61    6.56
   1  -2  -9   69.04    6.26
   1  -2  -8   21.05    6.75
   1  -2  -7   75.57    7.20
   1  -2  -6   97.89    7.73
   1  -2  -5  370.39    9.28
   1  -2  -4   36.16    5.66
   1  -2  -3  146.60    6.69
   1  -2  -2  135.63    4.16
   1  -2  -1  244.09    4.59
   1  -2   0 1104.42   21.33
   1  -2   1  285.42   12.22
   1  -2   2  173.40    3.25
   1  -2   3  186.58    3.49
   1  -2   4  189.77    4.23
   1  -2   5   94.27   14.06
   1  -2   6   79.32   11.39
   1  -2   7   64.08   12.99
   1  -2   8   96.26   15.18
   1  -2   9  143.20   18.60
   1  -2  10  120.11   15.55
   1  -2  11  115.95   18.73
   1  -2  12   29.93   17.66
   1  -1 -13   44.99   19.64
   1  -1 -12   17.43    9.57
   1  -1 -11   40.93   16.43
   1  -1 -10   38.47   20.31
   1  -1  -9   51.19    6.08
   1  -1  -8   15.23    5.74
   1  -1  -7  103.82   14.65
   1  -1  -6  200.32    7.50
   1  -1  -5  605.60   21.64
   1  -1  -4  348.21   11.16
   1  -1  -3  495.77   24.14
   1  -1  -2  139.20    4.88
   1  -1  -1   16.43    5.11
   1  -1   0  791.53   14.01
   1  -1   1  389.83    5.34
   1  -1   2  546.91   19.84
   1  -1   3  481.31   16.39
   1  -1   4  600.08   22.28
   1  -1   5  412.85   27.12
   1  -1   6  178.84   22.36
   1  -1   7  105.55   12.67
   1  -1   8   75.63   14.34
   1  -1   9  151.61   13.54
   1  -1  10  176.58   19.67
   1  -1  11  178.44   19.80
   1  -1  12   65.91   17.50
   1  -1  13    7.83    7.22
   1   1 -13   42.54   12.76
   1   1 -12   30.63    9.97
   1   1 -11   65.24   10.78
   1   1 -10    6.49    9.23
   1   1  -9   44.23    4.98
   1   1  -8    7.87    7.44
   1   1  -7  121.06    8.38
   1   1  -6  163.69    7.97
   1   1  -5  366.33   43.07
   1   1  -4  451.08   18.13
   1   1  -3  440.63   15.58
   1   1  -2  109.30    4.03
   1   1  -1   59.16    2.77
   1   1   0  187.79    3.65
   1   1   1  216.97    5.74
   1   1   2  422.09   15.59
   1   1   3  224.37    7.28
   1   1   4  701.60   12.12
   1   1   5  613.54    9.29
   1   1   6  197.62   14.67
   1   1   7   69.87   11.40
   1   1   8   43.29   11.10
   1   1   9  152.37   15.26
   1   1  10  121.80   16.11
   1   1  11   83.35   14.59
   1   1  12   26.48   13.27
   1   2 -13   43.30   17.65
   1   2 -12   27.19   11.18
   1   2 -11   60.93   10.96
   1   2 -10   13.02    9.00
   1   2  -9   35.44    8.88
   1   2  -8    9.12    4.67
   1   2  -7  109.61    6.03
   1   2  -6  111.36    6.18
   1   2  -5  238.27    6.06
   1   2  -4   53.39    3.72
   1   2  -3   44.23    4.02
   1   2  -2   15.79    3.59
   1   2  -1   76.77    5.37
   1   2   0  118.42    4.10
   1   2   1  179.89   12.34
   1   2   2  136.64    4.68
   1   2   3   33.19    3.58
   1   2   4  162.56    6.23
   1   2   5  191.55    6.57
   1   2   6   79.49    4.51
   1   2   7   70.03    5.03
   1   2   8    7.73    5.84
   1   2   9  271.50   11.22
   1   2  10  171.86   19.35
   1   2  11   85.09   18.31
   1   2  12   16.44   17.23
   1   3 -12   59.94   12.21
   1   3 -11  128.30   22.41
   1   3 -10   40.42   10.52
   1   3  -9   73.61    9.22
   1   3  -8   55.43    6.48
   1   3  -7  141.33    7.13
   1   3  -6  208.25    7.06
   1   3  -5  293.82    6.84
   1   3  -4  135.67   14.60
   1   3  -3   97.42    7.56
   1   3  -2  117.21    9.90
   1   3  -1  210.16   11.44
   1   3   0  360.95   11.03
   1   3   1  288.11    5.65
   1   3   2  187.00    5.55
   1   3   3   77.88    5.71
   1   3   4  345.14    8.64
   1   3   5  370.95    7.12
   1   3   6  207.19    7.49
   1   3   7  124.28    6.18
   1   3   8    5.65    6.18
   1   3   9  339.83   22.16
   1   3  10  181.23   19.30
   1   3  11  113.94   18.86
   1   3  12   40.97   19.66
   1   4 -12   51.11   17.50
   1   4 -11   56.18   11.99
   1   4 -10   21.31   11.34
   1   4  -9   26.04    9.73
   1   4  -8   15.48    6.10
   1   4  -7   44.73    8.24
   1   4  -6  104.24    9.98
   1   4  -5  177.03   12.54
   1   4  -4  185.25   11.86
   1   4  -3  100.49   10.92
   1   4  -2   73.30    9.75
   1   4  -1   37.30    9.65
   1   4   0   70.94    4.42
   1   4   1   82.58    7.31
   1   4   2  125.45    5.30
   1   4   3   51.02    5.45
   1   4   4  442.83    8.72
   1   4   5  349.61    9.77
   1   4   6  132.10    6.66
   1   4   7   33.61    5.78
   1   4   8    9.44    8.05
   1   4   9  137.50   16.88
   1   4  10   83.67   18.97
   1   4  11   63.86   18.07
   1   4  12   55.22   18.24
   1   5  -7   17.61    9.42
   1   5  -6   94.89   10.81
   1   5  -5   91.27   12.32
   1   5  -4   20.14   10.07
   1   5  -3   11.66    9.36
   1   5  -2   19.51   10.05
   1   5  -1   29.35   10.18
   1   5   0   78.30    8.44
   1   5   1   47.51    4.17
   1   5   2   16.34    6.74
   1   5   3   20.84    5.14
   1   5   4   48.97    7.47
   1   5   5   39.96    5.62
   1   5   6   19.02    6.01
   1   5   7    5.96    6.02
   1   5   8    5.97    8.87
   1   5   9  132.06   18.09
   1   5  10  106.46   17.40
   1   5  11   20.58   16.78
   1   6  -7   41.56   11.66
   1   6  -6   95.99   13.47
   1   6  -5  126.42   14.68
   1   6  -4   94.39   12.91
   1   6  -3   44.66   12.58
   1   6  -2   81.39   13.49
   1   6  -1   44.89   12.73
   1   6   0   90.13   12.51
   1   6   1   57.54    8.88
   1   6   2   69.37    9.28
   1   6   3   35.38    5.76
   1   6   4  237.73   14.50
   1   6   5  176.15   11.93
   1   6   6   88.40    7.71
   1   6   7   18.23    9.90
   1   6   8    0.52    9.05
   1   6   9   46.71   14.86
   1   7  -6   57.74   15.21
   1   7  -5   70.57   14.79
   1   7  -4   42.44   15.09
   1   7  -3    3.41   13.19
   1   7  -2   26.21   13.06
   1   7  -1    9.93   13.00
   1   7   0   48.20   14.20
   1   7   1   31.07   10.56
   1   7   2   37.64    9.92
   1   7   3    7.30    9.46
   1   7   4   71.63   11.39
   1   7   5   51.49   10.17
   1   7   6   28.70   15.60
   1   7   7    7.61   15.53
   1   8  -5   32.43   14.84
   1   8  -4    7.66   15.27
   1   8  -3    0.21   15.41
   1   8  -2   13.92   14.89
   1   8  -1    4.98   15.31
   1   8   0    5.51   15.71
   1   8   1    1.64   10.81
   1   8   2    1.74   10.93
   1   8   3    5.04   10.65
   1   8   4   10.23   13.23
   1   8   5    0.25   16.75
   1   9   3   25.31   16.93
   2  -9   0   41.87   18.93
   2  -9   1   16.80   12.19
   2  -9   2   22.58   17.45
   2  -9   3   49.56   11.25
   2  -8  -5   40.14   18.35
   2  -8  -4    1.64   15.80
   2  -8  -3    0.44   16.41
   2  -8  -2    1.13   16.97
   2  -8  -1    6.70   18.32
   2  -8   0   24.45   10.34
   2  -8   1   19.74    9.71
   2  -8   2    0.65    8.68
   2  -8   3    9.92    8.96
   2  -8   4   13.32    9.08
   2  -8   5    8.70   11.71
   2  -7  -9   36.33   19.90
   2  -7  -8   21.24   17.85
   2  -7  -7   35.50   16.92
   2  -7  -6   42.73   16.97
   2  -7  -5   73.31   18.55
   2  -7  -4   41.13   17.00
   2  -7  -3   49.13   16.54
   2  -7  -2   42.79   15.48
   2  -7  -1   47.74    8.83
   2  -7   0   50.66    9.09
   2  -7   1   36.73    8.60
   2  -7   2   18.44    9.79
   2  -7   3   34.18    8.95
   2  -7   4   53.26   19.03
   2  -7   5   43.03   12.67
   2  -7   6   34.03   14.80
   2  -7   7   19.98   15.40
   2  -6 -11   61.38   20.25
   2  -6 -10   48.29   18.34
   2  -6  -9   49.41   17.84
   2  -6  -8   35.11   15.70
   2  -6  -7   70.64   17.15
   2  -6  -6   71.26   16.53
   2  -6  -5  108.59   16.96
   2  -6  -4  107.60   16.47
   2  -6  -3  111.39   16.05
   2  -6  -2   90.46    6.26
   2  -6  -1   85.28    6.46
   2  -6   0   79.05    5.80
   2  -6   1   84.10    6.76
   2  -6   2   88.05    5.92
   2  -6   3  118.43    7.13
   2  -6   4  145.24    6.01
   2  -6   5  115.82    6.35
   2  -6   6   58.57    6.95
   2  -6   7   37.82    7.04
   2  -6   8    4.02   15.17
   2  -5 -11   46.22   16.19
   2  -5 -10    7.53    9.62
   2  -5  -9   11.62    8.76
   2  -5  -8    9.42    8.59
   2  -5  -7   57.05    8.59
   2  -5  -6   52.46    7.88
   2  -5  -5  191.80    9.72
   2  -5  -4    0.48    5.67
   2  -5  -3    9.18    4.98
   2  -5  -2   40.62    3.46
   2  -5  -1   25.80    3.07
   2  -5   0   14.11    2.97
   2  -5   1   41.75    3.79
   2  -5   2    3.96    4.22
   2  -5   3   48.27    5.18
   2  -5   4   27.30    4.30
   2  -5   5   17.91    5.93
   2  -5   6   15.00   11.33
   2  -5   7   29.22   12.36
   2  -5   8    0.38   12.71
   2  -5   9  112.87   17.73
   2  -5  10   24.38   15.27
   2  -5  11    8.76   15.59
   2  -4 -13   49.12   18.25
   2  -4 -12   62.24   16.37
   2  -4 -11   91.52   11.94
   2  -4 -10   54.02    9.31
   2  -4  -9   73.05   11.69
   2  -4  -8   47.49    8.17
   2  -4  -7  117.36    9.65
   2  -4  -6  110.42    8.10
   2  -4  -5  132.19    8.45
   2  -4  -4  178.05    7.58
   2  -4  -3  165.26    6.88
   2  -4  -2  161.46   10.39
   2  -4  -1  134.49    5.73
   2  -4   0   79.22    2.99
   2  -4   1   86.92    4.53
   2  -4   2  115.47    6.93
   2  -4   3   88.58    6.04
   2  -4   4  254.89    8.23
   2  -4   5  199.42    9.64
   2  -4   6   53.62    6.12
   2  -4   7   38.47   12.21
   2  -4   8    6.97   12.42
   2  -4   9  139.43   18.58
   2  -4  10   63.88   16.35
   2  -4  11   50.97   16.87
   2  -3 -13   67.14   17.69
   2  -3 -12  101.43   13.35
   2  -3 -11  111.64   16.18
   2  -3 -10   58.60    9.17
   2  -3  -9   87.26    8.62
   2  -3  -8   99.05    9.62
   2  -3  -7  225.82    9.92
   2  -3  -6  253.42   10.29
   2  -3  -5  237.24   13.37
   2  -3  -4  180.79    7.86
   2  -3  -3  159.88    9.14
   2  -3  -2  152.14   11.66
   2  -3  -1  131.27    6.04
   2  -3   0   51.69    9.60
   2  -3   1  152.97    3.38
   2  -3   2  156.38    7.28
   2  -3   3  139.99    5.27
   2  -3   4  322.67    8.14
   2  -3   5  207.30    4.96
   2  -3   6   64.64    5.87
   2  -3   7   74.10   13.31
   2  -3   8   10.18   12.35
   2  -3   9  279.84   22.35
   2  -3  10   93.77   16.86
   2  -3  11   72.60   18.99
   2  -3  12   10.84   18.85
   2  -2 -13   67.69   17.70
   2  -2 -12   98.25   12.91
   2  -2 -11   73.93   11.37
   2  -2 -10   35.68   11.72
   2  -2  -9   42.96    8.19
   2  -2  -8   55.91    7.05
   2  -2  -7  119.90   12.77
   2  -2  -6  145.71    7.52
   2  -2  -5  153.11    7.91
   2  -2  -4  107.12    5.20
   2  -2  -3  104.77    5.74
   2  -2  -2  153.36    4.43
   2  -2  -1   71.29    9.96
   2  -2   0   28.19    5.52
   2  -2   1   18.11    5.36
   2  -2   2   44.72    4.43
   2  -2   3   26.94    3.61
   2  -2   4  195.82    4.26
   2  -2   5  104.27    4.18
   2  -2   6   23.39   11.02
   2  -2   7   20.41   11.59
   2  -2   8   41.04   13.08
   2  -2   9  145.86   17.12
   2  -2  10   36.31   16.34
   2  -2  11   10.91   16.66
   2  -2  12   21.55   16.85
   2  -1 -13   46.85   17.84
   2  -1 -12   81.78   12.13
   2  -1 -11  136.26   14.66
   2  -1 -10   74.53    7.24
   2  -1  -9  109.87    7.72
   2  -1  -8  105.87    8.12
   2  -1  -7  143.59    7.90
   2  -1  -6  133.39    8.54
   2  -1  -5   94.82    5.31
   2  -1  -4  265.82   22.47
   2  -1  -3  212.22    6.60
   2  -1  -2  372.74   36.35
   2  -1  -1  325.89   19.16
   2  -1   0  313.10   12.65
   2  -1   1  155.47    7.77
   2  -1   2  167.83    4.30
   2  -1   3   37.31    3.05
   2  -1   4  675.85   28.77
   2  -1   5  308.95   11.16
   2  -1   6   51.06    6.93
   2  -1   7   23.29    7.86
   2  -1   8   32.59   12.29
   2  -1   9  261.71   21.28
   2  -1  10  101.65   16.03
   2  -1  11   60.48   18.13
   2  -1  12   42.85   14.87
   2   1 -13   65.68   11.74
   2   1 -12   83.52   11.94
   2   1 -11  115.99   11.23
   2   1 -10  111.63   11.15
   2   1  -9   97.46   10.10
   2   1  -8   85.23    5.51
   2   1  -7  121.13    6.29
   2   1  -6  130.44   12.98
   2   1  -5  173.10    5.48
   2   1  -4  219.12    7.52
   2   1  -3  212.37    5.47
   2   1  -2  674.22   25.62
   2   1  -1  416.70    6.46
   2   1   0  500.44    8.47
   2   1   1   85.39    5.96
   2   1   2  109.10    3.59
   2   1   3   61.54    4.59
   2   1   4  584.97   98.85
   2   1   5  248.09    8.44
   2   1   6   51.73    7.57
   2   1   7   18.42    2.37
   2   1   8   19.58   12.13
   2   1   9   92.37   13.12
   2   1  10   34.84   11.08
   2   1  11   26.30   11.99
   2   1  12   39.60   15.34
   2   2 -13   30.27   18.00
   2   2 -12   43.11   11.42
   2   2 -11   48.50   11.19
   2   2 -10   67.50   10.37
   2   2  -9   37.49    6.64
   2   2  -8   34.85    6.09
   2   2  -7   91.18    6.39
   2   2  -6  120.90    5.81
   2   2  -5  119.64    8.64
   2   2  -4   48.35    9.93
   2   2  -3   28.52    3.93
   2   2  -2  319.51    9.48
   2   2  -1   72.17    3.97
   2   2   0  191.76   10.81
   2   2   1    6.12    4.01
   2   2   2   34.18    4.83
   2   2   3   11.62    5.77
   2   2   4  397.24    9.51
   2   2   5   93.96   12.52
   2   2   6   20.70    6.78
   2   2   7   43.45    6.89
   2   2   8   55.97    6.90
   2   2   9   76.53   14.43
   2   2  10   35.94   16.24
   2   2  11   14.16   17.05
   2   2  12   12.03   18.29
   2   3 -13   51.59   18.12
   2   3 -12   97.33   13.38
   2   3 -11   98.09   12.45
   2   3 -10  139.32   15.19
   2   3  -9   68.35    8.82
   2   3  -8   65.64    6.14
   2   3  -7  223.00    9.76
   2   3  -6  195.55   20.18
   2   3  -5  260.63    8.26
   2   3  -4  206.51    6.48
   2   3  -3  177.77    7.17
   2   3  -2  644.95   15.16
   2   3  -1  195.86    8.43
   2   3   0  242.50    3.63
   2   3   1   14.07    4.05
   2   3   2   71.80    4.49
   2   3   3   77.77    6.34
   2   3   4  486.23    8.51
   2   3   5  207.04    6.01
   2   3   6   94.04    8.46
   2   3   7   44.81    7.54
   2   3   8   46.84    7.84
   2   3   9   70.50   16.18
   2   3  10   54.55   16.91
   2   3  11   16.61   16.44
   2   4 -12   61.29   17.56
   2   4 -11   79.75   17.40
   2   4 -10   96.56   16.76
   2   4  -9   66.65   12.92
   2   4  -8   60.27    8.54
   2   4  -7  217.34   14.23
   2   4  -6   65.03    9.99
   2   4  -5   95.97   12.08
   2   4  -4   90.95    5.36
   2   4  -3   97.52   17.55
   2   4  -2  482.69   19.24
   2   4  -1  229.01   13.32
   2   4   0  192.71   38.00
   2   4   1   64.98    3.14
   2   4   2  103.51    5.11
   2   4   3  106.30    7.24
   2   4   4  271.87    7.81
   2   4   5  126.39    5.94
   2   4   6   72.05    8.84
   2   4   7   25.20    8.39
   2   4   8   39.11   15.78
   2   4   9   47.24    9.13
   2   4  10   40.19   16.72
   2   4  11   52.52   17.56
   2   5  -8    0.21   10.36
   2   5  -7   98.76   13.56
   2   5  -6   53.67   11.42
   2   5  -5   47.27   10.79
   2   5  -4   26.09   11.45
   2   5  -3   19.40   10.22
   2   5  -2  134.12   14.01
   2   5  -1   29.56   11.62
   2   5   0   33.69   11.06
   2   5   1    8.78   10.39
   2   5   2    5.75    4.11
   2   5   3   19.17    4.76
   2   5   4  105.38    6.48
   2   5   5   34.83    6.07
   2   5   6   16.06    7.82
   2   5   7   29.07    8.46
   2   5   8   16.58    9.01
   2   5   9   16.85    9.19
   2   5  10   16.67   15.31
   2   5  11   22.47   18.62
   2   6  -7  222.44   17.32
   2   6  -6   39.29   12.43
   2   6  -5   89.40   14.61
   2   6  -4   72.02   13.98
   2   6  -3  130.49   15.56
   2   6  -2  254.72   19.24
   2   6  -1  142.63   15.57
   2   6   0  111.57   16.58
   2   6   1   68.93   13.97
   2   6   2   47.23   13.69
   2   6   3   64.50   14.39
   2   6   4  127.87   11.08
   2   6   5  107.56   15.27
   2   6   6   81.37   17.05
   2   6   7   28.77   14.54
   2   6   8   33.84   15.33
   2   6   9   42.29   15.31
   2   7  -7  135.12   18.14
   2   7  -6    2.36   13.79
   2   7  -5   24.47   14.37
   2   7  -4   28.36   14.05
   2   7  -3   64.45   15.89
   2   7  -2  115.72   17.01
   2   7  -1   57.38   15.90
   2   7   0   61.05   15.35
   2   7   1   64.66   16.34
   2   7   2   35.18   15.29
   2   7   3   40.17   16.30
   2   7   4   98.95   16.91
   2   7   5   78.72   18.37
   2   7   6   40.42   17.20
   2   7   7   33.06   16.74
   2   7   8   12.29   16.33
   2   8  -6    0.85   15.89
   2   8  -5    0.57   15.97
   2   8  -4   18.08   15.27
   2   8  -3   12.53   15.69
   2   8  -2   33.13   16.23
   2   8  -1   15.05   16.41
   2   8   0   22.22   15.73
   2   8   1   10.50   16.34
   2   8   2    4.20   15.70
   2   8   3    9.14   16.74
   2   8   4   11.58   16.70
   3  -8  -4    1.73   17.22
   3  -8  -3    2.17   17.54
   3  -8  -2   11.18   17.58
   3  -8  -1    5.57   17.12
   3  -8   0   10.34   15.68
   3  -8   1   20.61    9.72
   3  -8   2    6.38    9.48
   3  -8   3    6.53   12.14
   3  -8   4   19.02   14.93
   3  -8   5    2.06   13.59
   3  -7  -7   52.13   18.99
   3  -7  -6   33.47   19.21
   3  -7  -5    7.00   16.59
   3  -7  -4   95.41   19.57
   3  -7  -3   85.40   17.40
   3  -7  -2  113.51   18.86
   3  -7  -1   46.96    9.99
   3  -7   0   24.68    8.51
   3  -7   1   46.75    9.30
   3  -7   2   38.95    9.26
   3  -7   3    8.30    8.55
   3  -7   4   76.26   10.47
   3  -7   5   40.78   13.97
   3  -7   6   14.82   12.49
   3  -6 -10   76.31   18.80
   3  -6  -9   59.83   19.06
   3  -6  -8   81.40   19.15
   3  -6  -7   87.97   19.58
   3  -6  -6   69.08   16.04
   3  -6  -5   26.73   16.34
   3  -6  -4  104.95   16.85
   3  -6  -3  105.44   16.98
   3  -6  -2  200.17   10.27
   3  -6  -1  138.36   11.61
   3  -6   0  107.59    9.76
   3  -6   1   88.88    9.15
   3  -6   2   92.89    9.40
   3  -6   3   50.34    9.16
   3  -6   4  159.73    8.55
   3  -6   5   90.04   12.39
   3  -6   6   32.77   11.79
   3  -6   7   53.85   16.29
   3  -6   8   32.82   17.00
   3  -6   9   86.41   18.38
   3  -5 -11   12.97   16.42
   3  -5 -10   47.23   16.42
   3  -5  -9    7.20   14.18
   3  -5  -8   30.02   14.73
   3  -5  -7   43.59   14.50
   3  -5  -6   31.88   15.10
   3  -5  -5   16.79   12.95
   3  -5  -4   77.43   15.06
   3  -5  -3   53.82   13.90
   3  -5  -2  106.20   19.78
   3  -5  -1   38.54    6.99
   3  -5   0   61.41    7.20
   3  -5   1   16.21    6.77
   3  -5   2   22.65    7.06
   3  -5   3   16.18    9.56
   3  -5   4  133.64   12.20
   3  -5   5   34.26    7.19
   3  -5   6   29.48   12.71
   3  -5   7   26.44   15.45
   3  -5   8   86.92   16.83
   3  -5   9   13.58   17.29
   3  -5  10    6.08   16.82
   3  -4 -11   57.23   16.15
   3  -4 -10  141.97   17.78
   3  -4  -9   87.27    9.40
   3  -4  -8  126.35   10.67
   3  -4  -7  117.55    8.54
   3  -4  -6   51.38    6.37
   3  -4  -5   40.99    8.59
   3  -4  -4  109.89    4.86
   3  -4  -3  156.00   15.19
   3  -4  -2  440.10   10.24
   3  -4  -1  197.87    7.47
   3  -4   0  216.40    9.62
   3  -4   1   52.52   10.20
   3  -4   2   92.47    7.15
   3  -4   3   66.61    9.90
   3  -4   4  211.93   12.31
   3  -4   5   78.74    8.81
   3  -4   6   52.61   14.13
   3  -4   7   55.78   14.43
   3  -4   8   55.40   15.31
   3  -4   9   73.58   17.63
   3  -4  10   16.22   17.87
   3  -3 -13   15.55   14.94
   3  -3 -12   63.71   16.43
   3  -3 -11   53.49    9.98
   3  -3 -10  119.76   16.98
   3  -3  -9   79.09    9.70
   3  -3  -8  124.15    8.59
   3  -3  -7  238.79   27.31
   3  -3  -6  119.83    8.28
   3  -3  -5  136.02    6.83
   3  -3  -4  155.13    8.00
   3  -3  -3  194.21   14.35
   3  -3  -2  557.44    8.46
   3  -3  -1  248.41   15.50
   3  -3   0  308.58   14.96
   3  -3   1  124.36   11.23
   3  -3   2  227.28   15.55
   3  -3   3  196.43    7.17
   3  -3   4  418.26   14.51
   3  -3   5  150.30    8.51
   3  -3   6   64.25    6.31
   3  -3   7   88.30   15.17
   3  -3   8  136.29   18.55
   3  -3   9   64.10   16.64
   3  -3  10   48.23   17.77
   3  -3  11   28.10   19.62
   3  -2 -13   22.47   16.21
   3  -2 -12   55.23   25.06
   3  -2 -11   33.63   12.60
   3  -2 -10   61.63    9.33
   3  -2  -9   38.41    8.07
   3  -2  -8   45.00    7.68
   3  -2  -7  201.03    9.86
   3  -2  -6   39.33    6.28
   3  -2  -5   61.04    5.86
   3  -2  -4   54.30    5.50
   3  -2  -3  100.84   11.40
   3  -2  -2  502.01    9.26
   3  -2  -1  124.60   11.65
   3  -2   0   94.05   11.15
   3  -2   1   74.98    4.65
   3  -2   2   87.47    5.07
   3  -2   3   93.14    5.74
   3  -2   4  224.47   11.42
   3  -2   5   60.13    5.80
   3  -2   6   42.06    3.78
   3  -2   7   85.00   14.94
   3  -2   8   86.34   15.77
   3  -2   9   22.46   14.31
   3  -2  10    4.78   15.99
   3  -2  11   34.60   18.43
   3  -1 -13    1.82   15.32
   3  -1 -12   37.38   13.59
   3  -1 -11   70.38   11.26
   3  -1 -10  120.66    9.45
   3  -1  -9  115.90   10.08
   3  -1  -8   80.37    7.82
   3  -1  -7  285.87   10.31
   3  -1  -6   25.32    6.11
   3  -1  -5   38.83    7.10
   3  -1  -4   30.75    7.90
   3  -1  -3  172.62   12.69
   3  -1  -2  930.18   47.88
   3  -1  -1  338.91   15.77
   3  -1   0  321.64    6.49
   3  -1   1  133.26    5.97
   3  -1   2  195.30    9.04
   3  -1   3  176.91   18.57
   3  -1   4  221.16   12.82
   3  -1   5   92.47    7.01
   3  -1   6   90.25    8.26
   3  -1   7  154.73   16.16
   3  -1   8  159.87   17.24
   3  -1   9   91.78   15.65
   3  -1  10   41.92   16.20
   3  -1  11   29.52   14.01
   3   1 -13    0.10   87.06
   3   1 -12   62.69   20.69
   3   1 -11   39.89   10.61
   3   1 -10   56.42    8.30
   3   1  -9   74.00    8.16
   3   1  -8   74.02    7.60
   3   1  -7  391.58   17.05
   3   1  -6    5.58    5.08
   3   1  -5   28.10    8.76
   3   1  -4   60.67    9.01
   3   1  -3  225.48   12.32
   3   1  -2  930.25   62.83
   3   1  -1  316.73    9.13
   3   1   0  231.98   13.16
   3   1   1  147.88    5.40
   3   1   2  138.94    7.34
   3   1   3  134.50   10.85
   3   1   4  114.02    6.37
   3   1   5   88.98   21.79
   3   1   6   74.75    6.76
   3   1   7  103.24    6.89
   3   1   8   98.99   14.66
   3   1   9   76.16   13.34
   3   1  10   15.78   10.36
   3   1  11   20.59   15.69
   3   2 -13   19.63   17.31
   3   2 -12   43.05   12.18
   3   2 -11    8.44   10.53
   3   2 -10   14.51    7.12
   3   2  -9   43.21    8.88
   3   2  -8   40.48   10.79
   3   2  -7  318.66   12.02
   3   2  -6   22.92    7.87
   3   2  -5   30.02    5.85
   3   2  -4   38.76    5.60
   3   2  -3  106.79    5.84
   3   2  -2  312.11   14.66
   3   2  -1  126.08    7.86
   3   2   0  127.88    6.26
   3   2   1  138.30   13.51
   3   2   2  122.23    6.94
   3   2   3  133.93    7.94
   3   2   4  160.05    9.52
   3   2   5  127.75    8.23
   3   2   6   68.45   15.63
   3   2   7   87.57    8.92
   3   2   8   41.65   14.90
   3   2   9   85.81   16.93
   3   2  10    6.66   16.22
   3   2  11   65.73   20.03
   3   3 -13   25.99   16.13
   3   3 -12  125.42   20.32
   3   3 -11   35.38   15.62
   3   3 -10   31.52   14.08
   3   3  -9   60.89    8.55
   3   3  -8   87.32    9.37
   3   3  -7  396.92   12.46
   3   3  -6   64.16    7.35
   3   3  -5   98.56    7.15
   3   3  -4  157.56    5.65
   3   3  -3  260.45    8.80
   3   3  -2  437.77    9.99
   3   3  -1  307.24    7.87
   3   3   0  265.70   11.33
   3   3   1  190.01    5.62
   3   3   2  197.46   11.77
   3   3   3  205.37   10.98
   3   3   4  251.93   10.45
   3   3   5  214.13   10.38
   3   3   6  118.24    9.68
   3   3   7  175.07   13.02
   3   3   8   89.04   10.94
   3   3   9  152.58   19.20
   3   3  10   37.26   17.04
   3   3  11   61.39   19.86
   3   4  -9   90.64   14.18
   3   4  -8   76.54    8.31
   3   4  -7  218.51   10.90
   3   4  -6   35.38   10.87
   3   4  -5   25.62   11.84
   3   4  -4   29.31   11.75
   3   4  -3   89.50   12.79
   3   4  -2  252.43   16.79
   3   4  -1  202.36    3.51
   3   4   0  157.97    5.63
   3   4   1   99.56    5.44
   3   4   2  102.90    6.76
   3   4   3   74.12    7.54
   3   4   4   73.13    7.70
   3   4   5   68.10    8.70
   3   4   6   40.17    8.55
   3   4   7   89.77   10.63
   3   4   8   87.55   10.62
   3   4   9  115.42   18.70
   3   4  10   27.70   17.80
   3   5  -8   20.54   12.89
   3   5  -7   88.67   14.24
   3   5  -6   51.46   13.80
   3   5  -5   27.61   12.34
   3   5  -4   48.82   13.85
   3   5  -3   41.57   12.44
   3   5  -2   40.94   12.81
   3   5  -1   73.93   14.47
   3   5   0   93.83   15.07
   3   5   1    6.22   11.50
   3   5   2   83.65   14.99
   3   5   3   79.62   13.41
   3   5   4  115.89   16.14
   3   5   5   68.98    8.83
   3   5   6   12.73    8.41
   3   5   7   82.68   14.26
   3   5   8   31.42   10.34
   3   5   9   36.18   16.16
   3   6  -8   48.62   15.30
   3   6  -7   78.57   16.67
   3   6  -6   42.19   13.63
   3   6  -5   17.69   13.94
   3   6  -4   23.13   12.77
   3   6  -3   57.99   15.36
   3   6  -2  107.32   15.80
   3   6  -1  179.10   17.75
   3   6   0  135.17   16.47
   3   6   1   45.34   15.07
   3   6   2  100.36   15.11
   3   6   3   61.17   16.31
   3   6   4   77.77   15.77
   3   6   5   48.71   16.26
   3   6   6   27.16   14.37
   3   6   7   98.67   17.52
   3   6   8   78.05   17.04
   3   7  -7   42.15   15.70
   3   7  -6   47.29   16.16
   3   7  -5   17.18   13.68
   3   7  -4    9.91   15.17
   3   7  -3   13.38   14.95
   3   7  -2   49.55   16.59
   3   7  -1   66.69   16.98
   3   7   0   60.97   16.93
   3   7   1   19.89   14.55
   3   7   2  112.37   18.54
   3   7   3   46.63   16.82
   3   7   4   67.25   18.23
   3   7   5   17.84   15.60
   3   7   6   14.95   16.78
   4  -8  -1   27.13   17.74
   4  -8   0   21.50   17.39
   4  -8   1   25.61   17.50
   4  -8   2   38.34   16.76
   4  -7  -5   27.80   18.08
   4  -7  -4   17.02   17.38
   4  -7  -3   23.32   16.23
   4  -7  -2   78.89   17.80
   4  -7  -1   34.45   16.02
   4  -7   0   33.36   17.01
   4  -7   1   24.12   14.46
   4  -7   2   38.11   15.41
   4  -7   3   47.85    9.63
   4  -7   4   27.79   10.08
   4  -7   5   25.42   13.82
   4  -7   6   26.59   14.76
   4  -6  -8   31.05   18.60
   4  -6  -7   93.92   19.94
   4  -6  -6   25.87   16.42
   4  -6  -5   12.89   15.50
   4  -6  -4   17.47   15.37
   4  -6  -3   64.05   15.78
   4  -6  -2  155.14   18.17
   4  -6  -1   90.91   17.34
   4  -6   0   80.47   15.65
   4  -6   1   69.13   10.48
   4  -6   2   60.73    8.92
   4  -6   3   59.28    9.88
   4  -6   4   20.86    9.00
   4  -6   5   21.78   15.28
   4  -6   6   17.64   15.05
   4  -6   7   78.14   19.78
   4  -6   8   85.88   21.00
   4  -5 -11    1.36   16.47
   4  -5 -10    5.28   17.18
   4  -5  -9    3.22   15.93
   4  -5  -8   28.99   16.37
   4  -5  -7  119.60   17.46
   4  -5  -6   41.90   15.91
   4  -5  -5   45.49   15.01
   4  -5  -4   58.90   15.39
   4  -5  -3   44.92   13.99
   4  -5  -2   30.22   13.84
   4  -5  -1   37.30   13.02
   4  -5   0   38.59    9.34
   4  -5   1   53.35    7.42
   4  -5   2   93.11   14.48
   4  -5   3  127.81   13.95
   4  -5   4   44.24   11.25
   4  -5   5   39.10   14.63
   4  -5   6   20.68   16.49
   4  -5   7   57.06   17.00
   4  -5   8   39.10   17.67
   4  -5   9   15.85   18.54
   4  -4 -11    5.11   15.76
   4  -4 -10    1.81   15.46
   4  -4  -9   15.83   16.18
   4  -4  -8   22.61   14.97
   4  -4  -7  153.09   18.26
   4  -4  -6   19.76   13.24
   4  -4  -5   13.68   13.31
   4  -4  -4    8.05   12.58
   4  -4  -3   70.62   14.20
   4  -4  -2  142.93    6.16
   4  -4  -1   93.35    6.80
   4  -4   0   57.10   11.76
   4  -4   1   54.16   12.79
   4  -4   2   50.87   10.55
   4  -4   3   59.72   11.78
   4  -4   4    8.79    9.28
   4  -4   5   27.32    7.84
   4  -4   6   20.56   13.89
   4  -4   7  127.10   19.42
   4  -4   8  114.96   19.59
   4  -4   9   64.57   18.88
   4  -3 -11   26.35   15.44
   4  -3 -10   17.10   14.55
   4  -3  -9   53.14   14.50
   4  -3  -8  105.36   17.11
   4  -3  -7  278.86   10.38
   4  -3  -6  119.89   16.35
   4  -3  -5   94.04   13.73
   4  -3  -4  135.90   15.71
   4  -3  -3  149.82   14.91
   4  -3  -2  160.68    6.05
   4  -3  -1  151.79   14.54
   4  -3   0  137.24   14.61
   4  -3   1  163.82   12.83
   4  -3   2  225.27   16.26
   4  -3   3  222.39   12.96
   4  -3   4  129.42   12.43
   4  -3   5   84.07    8.06
   4  -3   6   51.17   15.62
   4  -3   7  127.33   18.24
   4  -3   8   86.87   19.18
   4  -3   9   96.87   18.82
   4  -2 -12   71.28   59.67
   4  -2 -11    3.00    8.78
   4  -2 -10    0.86    8.78
   4  -2  -9   14.82    8.28
   4  -2  -8   39.51    7.56
   4  -2  -7  229.32   10.98
   4  -2  -6   93.05   12.90
   4  -2  -5   52.91   14.21
   4  -2  -4   46.89   11.22
   4  -2  -3   40.54   12.08
   4  -2  -2   55.03   11.72
   4  -2  -1   80.18   12.11
   4  -2   0   65.41   10.24
   4  -2   1   42.77    4.56
   4  -2   2  140.04    6.20
   4  -2   3  111.24   12.83
   4  -2   4   71.79    8.76
   4  -2   5   53.75    8.37
   4  -2   6   18.78    6.45
   4  -2   7  112.64   18.18
   4  -2   8   68.17   17.89
   4  -2   9   60.90   17.81
   4  -2  10   25.07   16.15
   4  -1 -13    6.26   16.93
   4  -1 -12  103.37   39.10
   4  -1 -11   11.33    9.18
   4  -1 -10   37.43    8.18
   4  -1  -9   55.10    8.49
   4  -1  -8   67.21    9.02
   4  -1  -7  171.18   14.18
   4  -1  -6   90.76   13.73
   4  -1  -5   13.58    5.20
   4  -1  -4   14.55   10.29
   4  -1  -3   58.05    3.25
   4  -1  -2  102.70    7.11
   4  -1  -1  121.56   11.99
   4  -1   0  122.05    6.55
   4  -1   1   35.32    4.90
   4  -1   2  140.56   12.14
   4  -1   3   40.73    7.85
   4  -1   4   40.36    9.84
   4  -1   5   10.10    4.25
   4  -1   6    2.30    8.48
   4  -1   7  128.20   16.30
   4  -1   8  111.04   16.40
   4  -1   9   95.35   17.06
   4  -1  10   41.70   18.40
   4   1 -12   11.32   34.64
   4   1 -11    2.63  108.92
   4   1 -10   17.65    8.95
   4   1  -9   77.02   12.02
   4   1  -8   89.56   22.86
   4   1  -7  153.53   18.89
   4   1  -6   59.29   11.81
   4   1  -5    5.43   11.61
   4   1  -4    5.79   10.44
   4   1  -3   18.21    7.03
   4   1  -2   57.50   10.79
   4   1  -1  119.90   11.76
   4   1   0  100.97   10.88
   4   1   1    2.58    6.63
   4   1   2  174.48    9.92
   4   1   3   68.38    8.76
   4   1   4   44.00    8.16
   4   1   5   13.81    6.94
   4   1   6    9.72    5.11
   4   1   7  148.88   17.06
   4   1   8   88.20   15.60
   4   1   9   61.11   15.24
   4   1  10   17.24   10.61
   4   2 -11    1.15   19.27
   4   2 -10   18.15   18.02
   4   2  -9   39.68    9.65
   4   2  -8   42.80    8.74
   4   2  -7   76.01    9.67
   4   2  -6  152.02    8.94
   4   2  -5   53.73    8.71
   4   2  -4   49.29   18.13
   4   2  -3   30.74    7.49
   4   2  -2   35.98    2.83
   4   2  -1   55.23   12.51
   4   2   0   47.67    8.50
   4   2   1    3.37    9.84
   4   2   2  296.93   15.83
   4   2   3  110.95    9.87
   4   2   4   87.09    7.65
   4   2   5   10.10    7.63
   4   2   6    9.27    7.79
   4   2   7   94.46   15.94
   4   2   8   42.54   14.97
   4   2   9   23.95   16.34
   4   2  10   29.73   18.49
   4   3 -10   23.59   12.90
   4   3  -9   40.48   13.30
   4   3  -8   64.56   14.44
   4   3  -7  103.99   14.11
   4   3  -6  218.51   19.41
   4   3  -5  109.60   12.85
   4   3  -4   50.41   14.35
   4   3  -3   98.02   12.81
   4   3  -2  122.99   15.15
   4   3  -1  133.30   14.43
   4   3   0   99.18   14.15
   4   3   1    7.45    6.15
   4   3   2  436.68   13.79
   4   3   3  187.88    9.91
   4   3   4  179.60   13.37
   4   3   5   68.57    8.79
   4   3   6   58.88    9.49
   4   3   7  176.98   11.52
   4   3   8  123.67   19.51
   4   3   9   75.00   18.11
   4   3  10   50.45   19.13
   4   4  -9   34.36   13.44
   4   4  -8   30.27   13.31
   4   4  -7   37.40   13.94
   4   4  -6   26.56   12.28
   4   4  -5    4.21   12.64
   4   4  -4    6.07   12.15
   4   4  -3   35.16   13.67
   4   4  -2   59.79   13.17
   4   4  -1   51.85   13.90
   4   4   0   41.38    6.40
   4   4   1    4.80    5.97
   4   4   2  171.90    9.44
   4   4   3   25.59    7.77
   4   4   4    7.96    7.72
   4   4   5    7.08    8.34
   4   4   6   10.87    8.96
   4   4   7   76.81   11.06
   4   4   8   70.39   16.48
   4   4   9   54.42   18.92
   4   4  10   32.07   20.41
   4   5  -9   26.88   14.39
   4   5  -8   25.47   14.71
   4   5  -7   48.27   14.63
   4   5  -6   72.77   17.00
   4   5  -5   60.57   14.11
   4   5  -4   12.62   14.23
   4   5  -3   45.93   14.13
   4   5  -2   25.62   14.26
   4   5  -1   10.48   13.17
   4   5   0    2.56   13.08
   4   5   1    9.16   13.28
   4   5   2  213.15   19.89
   4   5   3   72.55   15.11
   4   5   4   64.46   15.29
   4   5   5   12.40   13.67
   4   5   6    4.97   12.56
   4   5   7   18.66   13.87
   4   6  -8   36.17   16.81
   4   6  -7   44.53   16.96
   4   6  -6   19.87   15.10
   4   6  -5   19.02   16.47
   4   6  -4    0.32   14.55
   4   6  -3   28.96   15.85
   4   6  -2   54.97   15.66
   4   6  -1   41.37   14.96
   4   6   0   15.27   14.59
   4   6   1    7.48   14.07
   4   6   2  139.73   17.85
   4   6   3   30.62   15.46
   4   6   4   14.98   14.05
   4   6   5   26.14   15.19
   4   6   6   14.35   15.62
   4   6   7   49.63   16.95
   4   7  -5   28.26   17.55
   4   7  -4    3.30   16.30
   4   7  -3   65.07   18.28
   4   7  -2   43.98   17.66
   4   7  -1   17.21   16.89
   4   7   0   14.71   15.66
   4   7   1    2.85   16.03
   4   7   2   88.54   19.73
   5  -7  -2   18.68   17.32
   5  -7  -1   20.49   16.21
   5  -7   0   12.36   15.39
   5  -7   1   21.29   16.29
   5  -7   2   52.73   17.91
   5  -6  -6   51.37   18.46
   5  -6  -5   26.99   17.92
   5  -6  -4    5.13   16.20
   5  -6  -3   72.63   18.22
   5  -6  -2   24.96   16.17
   5  -6  -1   62.45   16.99
   5  -6   0   17.99   14.89
   5  -6   1    4.34   14.78
   5  -6   2   61.56   15.58
   5  -6   3   16.62   13.88
   5  -6   5    5.72   16.76
   5  -6   6    1.09   17.75
   5  -5  -8   39.50   19.03
   5  -5  -7   54.20   17.80
   5  -5  -6  140.09   20.28
   5  -5  -5   38.11   16.38
   5  -5  -4   31.79   16.94
   5  -5  -3   30.64   15.01
   5  -5  -2    0.33   13.73
   5  -5  -1    0.09   13.56
   5  -5   0    6.12   13.18
   5  -5   1    8.95   13.56
   5  -5   2  125.04   17.11
   5  -5   3   63.99   13.50
   5  -5   4   42.60   13.34
   5  -5   5   17.45   16.92
   5  -5   6    5.04   16.43
   5  -4 -10   36.19   19.42
   5  -4  -9   34.06   18.18
   5  -4  -8   44.07   16.22
   5  -4  -7   30.69   15.89
   5  -4  -6   64.54   16.48
   5  -4  -5    2.13   14.40
   5  -4  -4   12.71   14.01
   5  -4  -3   25.22   14.15
   5  -4  -2   35.43   14.80
   5  -4  -1   49.08   14.80
   5  -4   0   31.60   12.92
   5  -4   1    7.68   12.48
   5  -4   2   78.90   13.51
   5  -4   3   16.96   12.61
   5  -4   4   10.23   11.13
   5  -4   5   10.32   14.75
   5  -4   6   12.06   16.10
   5  -4   7   79.35   20.39
   5  -3 -11   72.99   17.90
   5  -3 -10   71.47   17.88
   5  -3  -9   55.82   15.89
   5  -3  -8   70.64   17.91
   5  -3  -7   43.39   15.89
   5  -3  -6  262.69   21.95
   5  -3  -5  117.25   15.86
   5  -3  -4   93.93   17.06
   5  -3  -3  112.17   16.09
   5  -3  -2   82.22   15.44
   5  -3  -1   61.60   13.39
   5  -3   0   50.61   13.68
   5  -3   1    9.88   10.89
   5  -3   2  310.19   18.46
   5  -3   3  157.91   14.25
   5  -3   4   72.26   12.68
   5  -3   5   25.07    8.74
   5  -3   6   11.57   16.58
   5  -3   7   66.67   18.77
   5  -3   8   14.93   18.52
   5  -2 -11   47.79   17.74
   5  -2 -10   23.69   14.75
   5  -2  -9   45.24   15.89
   5  -2  -8   49.56   14.33
   5  -2  -7   36.73   13.94
   5  -2  -6  185.36   16.94
   5  -2  -5   58.79   15.69
   5  -2  -4   36.47   12.60
   5  -2  -3   54.32   13.95
   5  -2  -2   50.94   12.44
   5  -2  -1   22.42   11.66
   5  -2   0   19.64   11.12
   5  -2   1    1.35   10.73
   5  -2   2  237.70   16.96
   5  -2   3   58.94   12.72
   5  -2   4   27.48   10.95
   5  -2   5   16.47    7.98
   5  -2   6   19.30   16.70
   5  -2   7   36.87   17.90
   5  -2   8    6.71   16.88
   5  -1 -11  143.39   18.81
   5  -1 -10   52.69   15.42
   5  -1  -9   13.93   10.85
   5  -1  -8   19.64   12.95
   5  -1  -7   20.53   10.65
   5  -1  -6   78.14   14.74
   5  -1  -5   56.69   12.68
   5  -1  -4   19.73   12.14
   5  -1  -3   96.13   13.08
   5  -1  -2  113.60   14.10
   5  -1  -1   46.37   11.04
   5  -1   0   36.76   10.51
   5  -1   1   32.40   10.51
   5  -1   2  204.76   15.04
   5  -1   3   21.53   10.33
   5  -1   4    3.72    6.91
   5  -1   5   21.20    7.86
   5  -1   6   13.55    7.97
   5  -1   7   54.82   15.10
   5  -1   8   22.60   14.78
   5   1 -10   44.57   15.01
   5   1  -9   33.16    9.57
   5   1  -8   27.65    8.68
   5   1  -7   49.26   13.98
   5   1  -6   54.20   14.04
   5   1  -5   32.86   14.61
   5   1  -4    5.44    6.90
   5   1  -3  120.81   15.43
   5   1  -2   99.50   14.00
   5   1  -1   45.33   12.15
   5   1   0   40.52   11.53
   5   1   1   21.31   10.28
   5   1   2  252.53   17.35
   5   1   3   13.24    9.39
   5   1   4   11.28   14.50
   5   1   5   15.60    7.63
   5   1   6   20.10   12.12
   5   1   7   52.40   15.55
   5   1   8   63.14   15.49
   5   1   9   52.63   18.14
   5   2 -10   16.53   14.19
   5   2  -9   26.16   14.51
   5   2  -8   24.26   14.14
   5   2  -7   52.93   15.03
   5   2  -6   64.69   14.35
   5   2  -5   68.05   14.03
   5   2  -4   47.30   14.56
   5   2  -3  198.47   17.01
   5   2  -2  101.60   15.05
   5   2  -1    7.22   12.65
   5   2   0   12.52   12.42
   5   2   1   32.17   12.49
   5   2   2  246.00   18.31
   5   2   3   50.77    8.90
   5   2   4   31.13    9.37
   5   2   5   18.78    8.34
   5   2   6   11.78    8.78
   5   2   7   24.74   15.86
   5   2   8    4.74   15.86
   5   2   9   30.95   18.36
   5   3 -10   30.50   15.79
   5   3  -9   47.44   15.80
   5   3  -8   60.45   17.05
   5   3  -7  149.06   17.59
   5   3  -6  117.50   17.29
   5   3  -5  122.47   17.65
   5   3  -4   66.38   14.33
   5   3  -3  206.20   20.06
   5   3  -2  122.53   16.77
   5   3  -1   32.50   13.05
   5   3   0   38.10   14.08
   5   3   1   77.46   15.15
   5   3   2  327.88   13.66
   5   3   3  130.51   11.36
   5   3   4   81.95   10.18
   5   3   5   54.60   13.52
   5   3   6   35.22   10.28
   5   3   7   43.85   17.56
   5   3   8   29.65   16.76
   5   3   9   59.74   20.31
   5   4  -9   28.44   16.16
   5   4  -8    1.01   14.10
   5   4  -7   33.81   15.87
   5   4  -6    5.42   14.16
   5   4  -5   32.62   15.13
   5   4  -4   32.29   15.01
   5   4  -3  128.64   16.97
   5   4  -2   74.49   16.51
   5   4  -1   53.96   15.34
   5   4   0   53.09   15.20
   5   4   1   30.57   14.46
   5   4   2   69.06   15.85
   5   4   3   26.32   13.70
   5   4   4   26.48   13.57
   5   4   5   19.59   13.14
   5   4   6   16.74   13.14
   5   5  -8    6.99   15.39
   5   5  -7   42.12   16.99
   5   5  -6   19.80   15.53
   5   5  -5   47.39   17.11
   5   5  -4   40.74   16.36
   5   5  -3   91.86   17.51
   5   5  -2   30.65   16.06
   5   5  -1    4.69   14.67
   5   5   0    2.88   14.86
   5   5   1   19.12   14.86
   5   5   2   87.82   18.09
   5   5   3   54.04   16.31
   5   5   4   58.56   15.75
   5   5   5    6.28   14.57
   5   5   6    1.79   15.35
   5   6  -4   32.86   16.80
   5   6  -3   76.72   18.92
   5   6  -2   70.69   18.93
   5   6  -1   50.05   16.86
   5   6   0   54.89   17.73
   5   6   1   43.67   16.64
   5   6   2   57.63   17.89
   5   6   3   43.64   17.44
   6  -6  -2   81.73   19.40
   6  -6  -1   50.97   17.50
   6  -6   0   34.89   17.86
   6  -6   1   30.09   16.93
   6  -6   2   83.16   18.51
   6  -5  -5   12.00   18.20
   6  -5  -4    6.17   16.47
   6  -5  -3   50.82   18.18
   6  -5  -2   32.33   16.71
   6  -5  -1    5.83   16.07
   6  -5   0   10.49   15.12
   6  -5   1   15.31   14.96
   6  -5   2   69.13   17.26
   6  -5   3   24.03   14.73
   6  -4  -7   37.01   19.39
   6  -4  -6   54.27   18.11
   6  -4  -5   37.38   17.14
   6  -4  -4   24.85   17.07
   6  -4  -3  119.46   18.37
   6  -4  -2   73.84   17.43
   6  -4  -1   77.58   15.61
   6  -4   0   36.72   14.97
   6  -4   1   38.48   14.18
   6  -4   2  128.66   17.15
   6  -4   3   37.44   13.33
   6  -4   5   32.89   17.60
   6  -3  -8   24.70   17.32
   6  -3  -7   62.28   17.93
   6  -3  -6   75.48   17.70
   6  -3  -5   80.54   18.29
   6  -3  -4   69.43   15.83
   6  -3  -3  178.65   20.08
   6  -3  -2  108.29   16.53
   6  -3  -1   55.82   15.84
   6  -3   0   20.39   14.26
   6  -3   1   80.46   15.46
   6  -3   2  143.97   16.40
   6  -3   3   97.30   14.94
   6  -3   4   58.11   13.30
   6  -3   5   52.34   19.52
   6  -2 -10    9.70   18.78
   6  -2  -9   30.09   18.41
   6  -2  -8    8.99   16.72
   6  -2  -7   47.16   16.08
   6  -2  -6   20.37   14.96
   6  -2  -5    0.78   14.20
   6  -2  -4   21.81   15.03
   6  -2  -3   77.13   15.46
   6  -2  -2   42.60   14.92
   6  -2  -1   32.58   12.87
   6  -2   0   33.84   13.54
   6  -2   1   78.67   14.81
   6  -2   2  111.08   16.36
   6  -2   3   37.52   13.11
   6  -2   4   22.37   13.42
   6  -2   5    7.64   17.24
   6  -2   6   16.91   17.50
   6  -1 -10   25.59   15.30
   6  -1  -9   34.75   18.32
   6  -1  -8    9.53   15.40
   6  -1  -7   46.71   14.83
   6  -1  -6   28.14   14.17
   6  -1  -5   42.71   14.32
   6  -1  -4   57.48   13.59
   6  -1  -3  148.61   17.78
   6  -1  -2   93.80   13.82
   6  -1  -1  125.56   17.22
   6  -1   0   81.94   12.76
   6  -1   1   84.32   14.53
   6  -1   2   78.79   13.22
   6  -1   3   83.11   14.07
   6  -1   4   79.68   12.93
   6  -1   5   53.70   16.25
   6  -1   6   63.55   16.46
   6   1  -8   42.25   16.49
   6   1  -7   47.59   15.25
   6   1  -6   15.08   13.14
   6   1  -5   34.69   14.06
   6   1  -4   57.49   15.04
   6   1  -3   77.40   14.24
   6   1  -2  107.50   15.51
   6   1  -1  171.89   18.73
   6   1   0  132.30   16.00
   6   1   1   62.24   13.87
   6   1   2   50.07   13.20
   6   1   3   41.55   13.14
   6   1   4  102.38   11.43
   6   1   5   19.94   12.52
   6   1   6   47.34   16.53
   6   1   7   60.97   19.03
   6   2  -9   38.56   16.86
   6   2  -8    5.47   15.80
   6   2  -7   10.19   15.44
   6   2  -6   32.00   16.33
   6   2  -5   29.18   14.45
   6   2  -4   58.67   16.99
   6   2  -3   64.90   16.25
   6   2  -2   66.12   16.83
   6   2  -1   28.28   14.75
   6   2   0   18.42   14.25
   6   2   1   15.00   13.51
   6   2   2   24.66   14.27
   6   2   3   33.68   10.02
   6   2   4   96.84   11.68
   6   2   5    8.03   10.26
   6   2   6   23.72   17.37
   6   2   7   32.11   19.84
   6   3  -8   34.92   17.48
   6   3  -7   12.95   16.61
   6   3  -6   49.67   17.94
   6   3  -5   52.17   16.75
   6   3  -4   48.61   16.56
   6   3  -3   48.33   16.00
   6   3  -2   77.55   17.19
   6   3  -1  106.42   18.53
   6   3   0  103.35   18.34
   6   3   1   68.92   16.09
   6   3   2   75.40   11.46
   6   3   3   54.90   11.30
   6   3   4   82.92   12.31
   6   3   5    8.64   10.60
   6   3   6   36.30   18.27
   6   3   7   53.96   19.71
   6   4  -6   39.66   18.02
   6   4  -5   47.92   18.17
   6   4  -4   44.64   17.12
   6   4  -3   39.16   18.03
   6   4  -2  107.35   19.70
   6   4  -1   82.99   17.34
   6   4   0   72.25   17.11
   6   4   1   21.09   16.20
   6   4   2   20.08   15.71
   6   4   3   32.75   16.63
   6   4   4   83.68   18.17
   6   4   5   16.40   16.06
   6   5   0    4.24   17.48
   7  -4  -2   42.26   18.95
   7  -4  -1   68.56   18.11
   7  -4   0   49.16   18.26
   7  -4   1   38.00   17.93
   7  -4   2   12.00   14.77
   7  -3  -4   51.13   19.13
   7  -3  -3    5.05   17.69
   7  -3  -2   50.47   17.51
   7  -3  -1   42.45   17.81
   7  -3   0   35.42   17.33
   7  -3   1    9.69   15.55
   7  -3   2   12.11   14.83
   7  -3   3   42.99   16.18
   7  -2  -5    1.07   19.30
   7  -2  -4    9.77   16.13
   7  -2  -3    1.10   15.81
   7  -2  -2   43.98   16.12
   7  -2  -1   28.14   15.87
   7  -2   0   53.95   15.79
   7  -2   1   10.12   15.01
   7  -2   2   20.61   15.15
   7  -2   3   29.30   16.13
   7  -1  -5   31.78   14.90
   7  -1  -4   18.05   14.44
   7  -1  -3    5.51   13.32
   7  -1  -2   44.26   16.04
   7  -1  -1   34.63   14.67
   7  -1   0   52.40   15.43
   7  -1   1   12.75   14.33
   7  -1   2   30.23   10.02
   7  -1   3   18.08   11.20
   7   1  -5   83.12   18.55
   7   1  -4   21.82   15.30
   7   1  -3   20.55   15.69
   7   1  -2   31.86   15.64
   7   1  -1   34.20   16.03
   7   1   0   67.01   17.69
   7   1   1   16.51   15.91
   7   1   2   41.97   16.55
   7   1   3   16.67    7.13
   7   1   4   22.97   17.61
   7   2  -4   17.35   17.08
   7   2  -3    0.93   17.27
   7   2  -2    9.69   16.84
   7   2  -1    0.48   16.39
   7   2   0   22.58   16.42
   7   2   1   21.25   17.72
   7   2   2   20.76   11.35
   7   2   3    2.10   11.32
   7   2   4    3.05   11.84
   7   3  -1   17.26   17.73
   7   3   0   87.49   20.42
   7   3   1   48.72   18.17
   7   3   2   65.81   18.56
   7   3   3   29.83   17.68
   7   3   4    8.73   16.71
   0   0   0    0.00    0.00
;
_shelx_hkl_checksum              47017
_shelx_shelxl_version_number     2014/7
_olex2_submission_special_instructions 'No special instructions were received'
loop_
_space_group_symop_operation_xyz
'x, y, z'
loop_
_atom_site_label
_atom_site_type_symbol
_atom_site_fract_x
_atom_site_fract_y
_atom_site_fract_z
_atom_site_U_iso_or_equiv
_atom_site_adp_type
_atom_site_occupancy
_atom_site_site_symmetry_order
_atom_site_calc_flag
_atom_site_refinement_flags_posn
_atom_site_refinement_flags_adp
Co1 Co 0.00005(14) 0.00001(12) 0.00002(11) 0.0111(3) Uani 1 1 d . .
C11 C -0.2317(14) 0.3791(11) -0.0110(8) 0.0185(18) Uani 1 1 d . U
H11A H -0.3074 0.3183 0.0565 0.022 Uiso 1 1 calc R .
H11B H -0.3138 0.3412 -0.0908 0.022 Uiso 1 1 calc R .
C9 C 0.1051(15) 0.4051(10) -0.1168(8) 0.0183(18) Uani 1 1 d . U
H9A H 0.2633 0.3802 -0.1090 0.022 Uiso 1 1 calc R .
H9B H 0.0342 0.3464 -0.1937 0.022 Uiso 1 1 calc R .
C13 C 0.1345(15) 0.3999(10) 0.1093(8) 0.0180(18) Uani 1 1 d . U
H13A H 0.2841 0.3532 0.1163 0.022 Uiso 1 1 calc R .
H13B H 0.0645 0.3603 0.1844 0.022 Uiso 1 1 calc R .
C14 C 0.1507(14) 0.6125(10) 0.1002(8) 0.0172(18) Uani 1 1 d . U
H14A H 0.1111 0.6639 0.1781 0.021 Uiso 1 1 calc R .
H14B H 0.3050 0.6554 0.0907 0.021 Uiso 1 1 calc R .
N1 N -0.0011(15) 0.3189(10) -0.0048(8) 0.0082(16) Uani 1 1 d . U
C10 C 0.0817(16) 0.6117(11) -0.1255(8) 0.0215(19) Uani 1 1 d . U
H10A H -0.0235 0.6397 -0.1980 0.026 Uiso 1 1 calc R .
H10B H 0.2260 0.6748 -0.1384 0.026 Uiso 1 1 calc R .
C12 C -0.2290(15) 0.5933(11) 0.0017(9) 0.023(2) Uani 1 1 d . U
H12A H -0.3347 0.6432 -0.0639 0.028 Uiso 1 1 calc R .
H12B H -0.2778 0.6231 0.0827 0.028 Uiso 1 1 calc R .
O1W O 0.3370(9) 0.0257(7) -0.0259(6) 0.0172(12) Uani 1 1 d . U
H1WA H 0.3741 -0.0660 -0.0717 0.026 Uiso 1 1 d GR .
H1WB H 0.4188 0.0224 0.0468 0.026 Uiso 1 1 d GR .
N2 N 0.0002(17) 0.6872(11) -0.0086(9) 0.0147(19) Uani 1 1 d . U
O1 O 0.0759(11) 0.0023(7) 0.1970(5) 0.0136(14) Uani 1 1 d . U
O2 O -0.2766(9) -0.0232(7) 0.1260(5) 0.0157(12) Uani 1 1 d . U
C6 C -0.0014(15) 0.0239(11) 0.4443(8) 0.016(2) Uani 1 1 d . U
H6 H 0.1421 0.0558 0.4218 0.019 Uiso 1 1 calc R .
C7 C -0.1205(13) -0.0111(10) 0.2185(7) 0.0116(16) Uani 1 1 d . U
C1 C -0.1790(13) -0.0152(11) 0.3518(8) 0.0149(17) Uani 1 1 d . U
C2 C -0.3916(13) -0.0615(10) 0.3849(7) 0.0158(17) Uani 1 1 d . U
H2 H -0.5089 -0.0869 0.3220 0.019 Uiso 1 1 calc R .
C4 C -0.2566(14) -0.0330(11) 0.6065(8) 0.0172(17) Uani 1 1 d . U
C3 C -0.4342(14) -0.0710(10) 0.5113(7) 0.0168(17) Uani 1 1 d . U
H3 H -0.5787 -0.1022 0.5325 0.020 Uiso 1 1 calc R .
C5 C -0.0407(17) 0.0147(12) 0.5712(10) 0.025(2) Uani 1 1 d . U
H5 H 0.0778 0.0405 0.6333 0.029 Uiso 1 1 calc R .
C8 C -0.3037(13) -0.0371(10) 0.7409(7) 0.0117(15) Uani 1 1 d . U
O3 O -0.4965(11) -0.0825(8) 0.7637(6) 0.0306(15) Uani 1 1 d . U
O4 O -0.1410(10) 0.0055(8) 0.8185(6) 0.0154(14) Uani 1 1 d . U
loop_
_atom_site_aniso_label
_atom_site_aniso_U_11
_atom_site_aniso_U_22
_atom_site_aniso_U_33
_atom_site_aniso_U_23
_atom_site_aniso_U_13
_atom_site_aniso_U_12
Co1 0.0108(5) 0.0176(5) 0.0046(4) -0.0020(3) -0.0009(3) 0.0002(3)
C11 0.018(2) 0.018(2) 0.019(2) -0.0008(13) 0.0015(13) 0.0008(13)
C9 0.018(2) 0.019(2) 0.018(2) -0.0003(13) 0.0017(13) 0.0012(13)
C13 0.018(2) 0.018(2) 0.018(2) -0.0008(13) 0.0007(13) 0.0003(13)
C14 0.017(2) 0.017(2) 0.017(2) -0.0008(13) 0.0002(13) 0.0017(13)
N1 0.008(2) 0.009(2) 0.008(2) -0.0002(12) 0.0009(13) -0.0001(13)
C10 0.022(2) 0.021(2) 0.021(2) -0.0006(13) 0.0027(14) 0.0019(13)
C12 0.023(2) 0.023(2) 0.024(2) 0.0004(13) 0.0028(14) 0.0012(13)
O1W 0.017(2) 0.016(2) 0.018(2) -0.0052(18) -0.0010(18) 0.0019(18)
N2 0.015(2) 0.015(2) 0.014(2) 0.0007(13) 0.0016(13) 0.0004(13)
O1 0.0130(18) 0.0137(17) 0.0140(18) 0.0002(12) 0.0015(13) 0.0005(12)
O2 0.0169(17) 0.0159(16) 0.0144(16) 0.0003(12) 0.0026(12) 0.0011(12)
C6 0.015(2) 0.016(2) 0.015(2) -0.0003(13) 0.0015(13) 0.0011(13)
C7 0.012(2) 0.0115(19) 0.0118(19) -0.0005(13) 0.0017(13) 0.0009(13)
C1 0.015(2) 0.015(2) 0.015(2) 0.0003(13) 0.0013(13) 0.0019(13)
C2 0.015(2) 0.017(2) 0.015(2) -0.0004(13) 0.0016(13) 0.0007(13)
C4 0.017(2) 0.017(2) 0.017(2) 0.0005(13) 0.0018(13) 0.0014(13)
C3 0.017(2) 0.017(2) 0.017(2) -0.0001(13) 0.0020(13) 0.0007(13)
C5 0.024(3) 0.025(3) 0.024(3) -0.0004(14) 0.0018(14) 0.0015(14)
C8 0.0117(19) 0.0125(19) 0.0111(19) -0.0007(13) 0.0017(13) 0.0005(13)
O3 0.029(3) 0.036(2) 0.026(2) -0.002(2) 0.004(2) 0.002(2)
O4 0.0149(18) 0.0157(18) 0.0153(18) 0.0002(12) 0.0016(13) -0.0003(12)
loop_
_atom_type_symbol
_atom_type_description
_atom_type_scat_dispersion_real
_atom_type_scat_dispersion_imag
_atom_type_scat_source
C C 0.0033 0.0016 'International Tables Vol C Tables 4.2.6.8 and 6.1.1.4'
H H 0.0000 0.0000 'International Tables Vol C Tables 4.2.6.8 and 6.1.1.4'
Co Co 0.3494 0.9721 'International Tables Vol C Tables 4.2.6.8 and 6.1.1.4'
N N 0.0061 0.0033 'International Tables Vol C Tables 4.2.6.8 and 6.1.1.4'
O O 0.0106 0.0060 'International Tables Vol C Tables 4.2.6.8 and 6.1.1.4'
loop_
_geom_angle_atom_site_label_1
_geom_angle_atom_site_label_2
_geom_angle_atom_site_label_3
_geom_angle
_geom_angle_site_symmetry_1
_geom_angle_site_symmetry_3
O1W Co1 N1 88.5(3) . .
O1W Co1 N2 90.8(3) . 1_545
O1W Co1 O1 91.2(2) . .
O1W Co1 O2 151.0(2) . .
N2 Co1 N1 176.3(4) 1_545 .
N2 Co1 O2 90.7(3) 1_545 .
O1 Co1 N1 90.6(3) . .
O1 Co1 N2 93.0(3) . 1_545
O1 Co1 O2 59.9(2) . .
O2 Co1 N1 91.7(3) . .
O4 Co1 N1 87.1(3) 1_554 .
O4 Co1 O1W 100.8(2) 1_554 .
O4 Co1 N2 89.5(3) 1_554 1_545
O4 Co1 O1 167.7(2) 1_554 .
O4 Co1 O2 108.1(2) 1_554 .
H11A C11 H11B 108.2 . .
N1 C11 H11A 109.6 . .
N1 C11 H11B 109.6 . .
N1 C11 C12 110.1(6) . .
C12 C11 H11A 109.6 . .
C12 C11 H11B 109.6 . .
H9A C9 H9B 108.0 . .
N1 C9 H9A 109.3 . .
N1 C9 H9B 109.3 . .
C10 C9 H9A 109.3 . .
C10 C9 H9B 109.3 . .
C10 C9 N1 111.5(6) . .
H13A C13 H13B 108.2 . .
C14 C13 H13A 109.6 . .
C14 C13 H13B 109.6 . .
N1 C13 H13A 109.6 . .
N1 C13 H13B 109.6 . .
N1 C13 C14 110.1(6) . .
C13 C14 H14A 109.0 . .
C13 C14 H14B 109.0 . .
H14A C14 H14B 107.8 . .
N2 C14 C13 112.8(7) . .
N2 C14 H14A 109.0 . .
N2 C14 H14B 109.0 . .
C11 N1 Co1 110.5(6) . .
C11 N1 C9 108.0(7) . .
C11 N1 C13 109.7(7) . .
C9 N1 Co1 112.4(5) . .
C13 N1 Co1 110.3(5) . .
C13 N1 C9 105.8(7) . .
C9 C10 H10A 109.2 . .
C9 C10 H10B 109.2 . .
C9 C10 N2 112.0(7) . .
H10A C10 H10B 107.9 . .
N2 C10 H10A 109.2 . .
N2 C10 H10B 109.2 . .
C11 C12 H12A 109.2 . .
C11 C12 H12B 109.2 . .
H12A C12 H12B 107.9 . .
N2 C12 C11 112.2(7) . .
N2 C12 H12A 109.2 . .
N2 C12 H12B 109.2 . .
Co1 O1W H1WA 111.4 . .
Co1 O1W H1WB 110.3 . .
H1WA O1W H1WB 107.9 . .
C14 N2 Co1 110.4(6) . 1_565
C14 N2 C10 105.7(8) . .
C14 N2 C12 106.1(7) . .
C10 N2 Co1 115.3(6) . 1_565
C12 N2 Co1 112.1(6) . 1_565
C12 N2 C10 106.6(8) . .
C7 O1 Co1 94.3(5) . .
C7 O2 Co1 86.3(4) . .
C1 C6 H6 120.4 . .
C1 C6 C5 119.3(7) . .
C5 C6 H6 120.4 . .
O1 C7 O2 119.6(7) . .
O1 C7 C1 120.1(7) . .
O2 C7 C1 120.3(7) . .
C6 C1 C7 115.9(7) . .
C2 C1 C6 120.4(7) . .
C2 C1 C7 123.6(7) . .
C1 C2 H2 119.5 . .
C1 C2 C3 121.1(7) . .
C3 C2 H2 119.5 . .
C3 C4 C8 119.4(7) . .
C5 C4 C3 118.8(8) . .
C5 C4 C8 121.8(8) . .
C2 C3 C4 119.5(8) . .
C2 C3 H3 120.3 . .
C4 C3 H3 120.3 . .
C6 C5 C4 121.0(8) . .
C6 C5 H5 119.5 . .
C4 C5 H5 119.5 . .
O3 C8 C4 117.7(7) . .
O3 C8 O4 126.8(8) . .
O4 C8 C4 115.5(7) . .
C8 O4 Co1 148.4(6) . 1_556
loop_
_geom_bond_atom_site_label_1
_geom_bond_atom_site_label_2
_geom_bond_distance
_geom_bond_site_symmetry_2
Co1 N1 2.262(7) .
Co1 O1W 2.063(6) .
Co1 N2 2.222(8) 1_545
Co1 O1 2.099(6) .
Co1 O2 2.235(6) .
Co1 O4 2.027(6) 1_554
C11 H11A 0.9700 .
C11 H11B 0.9700 .
C11 N1 1.466(13) .
C11 C12 1.527(10) .
C9 H9A 0.9700 .
C9 H9B 0.9700 .
C9 N1 1.511(12) .
C9 C10 1.482(11) .
C13 H13A 0.9700 .
C13 H13B 0.9700 .
C13 C14 1.507(10) .
C13 N1 1.492(12) .
C14 H14A 0.9700 .
C14 H14B 0.9700 .
C14 N2 1.501(13) .
C10 H10A 0.9700 .
C10 H10B 0.9700 .
C10 N2 1.502(13) .
C12 H12A 0.9700 .
C12 H12B 0.9700 .
C12 N2 1.502(14) .
O1W H1WA 0.8733 .
O1W H1WB 0.8722 .
N2 Co1 2.222(8) 1_565
O1 C7 1.220(9) .
O2 C7 1.286(9) .
C6 H6 0.9300 .
C6 C1 1.390(11) .
C6 C5 1.395(11) .
C7 C1 1.496(11) .
C1 C2 1.376(11) .
C2 H2 0.9300 .
C2 C3 1.395(11) .
C4 C3 1.407(11) .
C4 C5 1.404(12) .
C4 C8 1.486(11) .
C3 H3 0.9300 .
C5 H5 0.9300 .
C8 O3 1.227(9) .
C8 O4 1.236(10) .
O4 Co1 2.027(6) 1_556
loop_
_geom_torsion_atom_site_label_1
_geom_torsion_atom_site_label_2
_geom_torsion_atom_site_label_3
_geom_torsion_atom_site_label_4
_geom_torsion
_geom_torsion_site_symmetry_4
Co1 O1 C7 O2 1.1(7) .
Co1 O1 C7 C1 -179.5(6) .
Co1 O2 C7 O1 -1.0(7) .
Co1 O2 C7 C1 179.5(6) .
C11 C12 N2 Co1 177.1(5) 1_565
C11 C12 N2 C14 -62.3(9) .
C11 C12 N2 C10 50.1(9) .
C9 C10 N2 Co1 172.5(6) 1_565
C9 C10 N2 C14 50.3(10) .
C9 C10 N2 C12 -62.3(9) .
C13 C14 N2 Co1 172.4(5) 1_565
C13 C14 N2 C10 -62.3(9) .
C13 C14 N2 C12 50.7(9) .
C14 C13 N1 Co1 174.9(5) .
C14 C13 N1 C11 -63.1(9) .
C14 C13 N1 C9 53.1(8) .
N1 C11 C12 N2 11.1(8) .
N1 C9 C10 N2 11.1(9) .
N1 C13 C14 N2 8.9(8) .
C10 C9 N1 Co1 174.1(5) .
C10 C9 N1 C11 51.9(9) .
C10 C9 N1 C13 -65.5(9) .
C12 C11 N1 Co1 173.3(5) .
C12 C11 N1 C9 -63.4(8) .
C12 C11 N1 C13 51.4(9) .
O1 C7 C1 C6 8.8(10) .
O1 C7 C1 C2 -168.7(7) .
O2 C7 C1 C6 -171.7(6) .
O2 C7 C1 C2 10.8(11) .
C6 C1 C2 C3 -0.2(11) .
C7 C1 C2 C3 177.2(7) .
C1 C6 C5 C4 -0.1(12) .
C1 C2 C3 C4 -0.1(11) .
C4 C8 O4 Co1 -161.6(7) 1_556
C3 C4 C5 C6 -0.2(12) .
C3 C4 C8 O3 3.3(11) .
C3 C4 C8 O4 -177.1(7) .
C5 C6 C1 C7 -177.2(7) .
C5 C6 C1 C2 0.4(11) .
C5 C4 C3 C2 0.4(11) .
C5 C4 C8 O3 -179.1(7) .
C5 C4 C8 O4 0.5(11) .
C8 C4 C3 C2 178.0(7) .
C8 C4 C5 C6 -177.8(7) .
O3 C8 O4 Co1 18.0(16) 1_556
loop_
_smtbx_masks_void_nr
_smtbx_masks_void_average_x
_smtbx_masks_void_average_y
_smtbx_masks_void_average_z
_smtbx_masks_void_volume
_smtbx_masks_void_count_electrons
1 -0.889 0.466 0.496 134.0 48.2
