#------------------------------------------------------------------------------
#$Date: 2019-11-24 04:12:18 +0200 (Sun, 24 Nov 2019) $
#$Revision: 236652 $
#$URL: file:///home/coder/svn-repositories/cod/cif/8/00/03/8000368.cif $
#------------------------------------------------------------------------------
#
# This file is available in the Crystallography Open Database (COD),
# http://www.crystallography.net/
#
# All data on this site have been placed in the public domain by the
# contributors.
#
data_8000368
loop_
_publ_author_name
'Andrzejewski, Micha\/l'
'Katrusiak, Andrzej'
_publ_section_title
;
 Piezochromic Porous Metal-Organic Framework.
;
_journal_issue                   1
_journal_name_full               'The journal of physical chemistry letters'
_journal_page_first              279
_journal_page_last               284
_journal_paper_doi               10.1021/acs.jpclett.6b02458
_journal_volume                  8
_journal_year                    2017
_chemical_formula_moiety         'C14 H18 Co N2 O5'
_chemical_formula_sum            'C14 H18 Co N2 O5'
_chemical_formula_weight         353.23
_chemical_name_common            AMU1
_chemical_name_systematic
;
Co(1,4-benzenedicarboxylate)(1,4-diazabicyclo[2.2.2]octane)H2O
;
_space_group_crystal_system      triclinic
_space_group_IT_number           1
_space_group_name_Hall           'P 1'
_space_group_name_H-M_alt        'P 1'
_atom_sites_solution_hydrogens   mixed
_atom_sites_solution_primary     direct
_audit_creation_date             2016-07-12
_audit_creation_method
;
Olex2 1.2
(compiled 2016.02.19 svn.r3266 for OlexSys, GUI svn.r5155)
;
_cell_angle_alpha                88.930(5)
_cell_angle_beta                 96.108(6)
_cell_angle_gamma                93.520(6)
_cell_formula_units_Z            1
_cell_length_a                   5.9793(5)
_cell_length_b                   7.0877(5)
_cell_length_c                   10.6426(7)
_cell_measurement_reflns_used    3673
_cell_measurement_temperature    100(2)
_cell_measurement_theta_max      58.176
_cell_measurement_theta_min      5.76
_cell_volume                     447.59(6)
_computing_molecular_graphics    'Olex2 (Dolomanov et al., 2009)'
_computing_publication_material  'Olex2 (Dolomanov et al., 2009)'
_computing_structure_refinement  'ShelXL (Sheldrick, 2015)'
_computing_structure_solution    'ShelXS (Sheldrick, 2008)'
_diffrn_ambient_temperature      100(2)
_diffrn_measured_fraction_theta_full 0.914
_diffrn_measured_fraction_theta_max 0.817
_diffrn_measurement_device_type  'multiwire proportional'
_diffrn_measurement_method       'phi and omega scans'
_diffrn_radiation_monochromator  graphite
_diffrn_radiation_type           MoK\a
_diffrn_radiation_wavelength     0.71073
_diffrn_reflns_av_R_equivalents  0.0540
_diffrn_reflns_av_unetI/netI     0.1305
_diffrn_reflns_Laue_measured_fraction_full 0.914
_diffrn_reflns_Laue_measured_fraction_max 0.817
_diffrn_reflns_limit_h_max       7
_diffrn_reflns_limit_h_min       -8
_diffrn_reflns_limit_k_max       9
_diffrn_reflns_limit_k_min       -9
_diffrn_reflns_limit_l_max       13
_diffrn_reflns_limit_l_min       -13
_diffrn_reflns_number            6240
_diffrn_reflns_point_group_measured_fraction_full 0.914
_diffrn_reflns_point_group_measured_fraction_max 0.817
_diffrn_reflns_theta_full        26.000
_diffrn_reflns_theta_max         29.088
_diffrn_reflns_theta_min         2.880
_exptl_absorpt_coefficient_mu    0.979
_exptl_absorpt_correction_T_max  0.907
_exptl_absorpt_correction_T_min  0.890
_exptl_absorpt_correction_type   multi-scan
_exptl_absorpt_process_details
;
Data were collected and reduced by program CrysAlisPro, 
and SCALE3 ABSPACK was used for absorption correction
;
_exptl_crystal_colour            purple
_exptl_crystal_density_diffrn    1.310
_exptl_crystal_description       plate
_exptl_crystal_F_000             183
_exptl_crystal_size_max          0.3
_exptl_crystal_size_mid          0.1
_exptl_crystal_size_min          0.1
_refine_diff_density_max         0.561
_refine_diff_density_min         -0.532
_refine_diff_density_rms         0.091
_refine_ls_abs_structure_details
;
 Refined as a perfect inversion twin.
;
_refine_ls_abs_structure_Flack   0.5
_refine_ls_extinction_method     none
_refine_ls_goodness_of_fit_ref   0.984
_refine_ls_hydrogen_treatment    constr
_refine_ls_matrix_type           full
_refine_ls_number_parameters     200
_refine_ls_number_reflns         3673
_refine_ls_number_restraints     129
_refine_ls_restrained_S_all      0.973
_refine_ls_R_factor_all          0.0743
_refine_ls_R_factor_gt           0.0578
_refine_ls_shift/su_max          0.000
_refine_ls_shift/su_mean         0.000
_refine_ls_structure_factor_coef Fsqd
_refine_ls_weighting_details
'w=1/[\s^2^(Fo^2^)+(0.0620P)^2^] where P=(Fo^2^+2Fc^2^)/3'
_refine_ls_weighting_scheme      calc
_refine_ls_wR_factor_gt          0.1295
_refine_ls_wR_factor_ref         0.1348
_reflns_Friedel_coverage         1.000
_reflns_Friedel_fraction_full    0.914
_reflns_Friedel_fraction_max     0.817
_reflns_number_gt                2815
_reflns_number_total             3673
_reflns_threshold_expression     'I > 2\s(I)'
_cod_data_source_file            jz6b02458_si_004.cif
_cod_data_source_block           100K_P1
_cod_database_code               8000368
_shelx_space_group_comment
;
The symmetry employed for this shelxl refinement is uniquely defined
by the following loop, which should always be used as a source of
symmetry information in preference to the above space-group names.
They are only intended as comments.
;
_olex2_refinement_description
;
1. Fixed Uiso
 At 1.2 times of:
  All C(H) groups, All C(H,H) groups
 At 1.5 times of:
  All O(H,H) groups
2. Uiso/Uaniso restraints and constraints
Uanis(C14) \\sim Ueq, Uanis(N2) \\sim Ueq, Uanis(C11) \\sim Ueq, Uanis(C10)
\\sim Ueq, Uanis(C9) \\sim Ueq, Uanis(C12) \\sim Ueq, Uanis(C13) \\sim Ueq,
Uanis(N1) \\sim Ueq: with sigma of 0.001 and sigma for terminal atoms of 0.002
Uanis(O1W) \\sim Ueq: with sigma of 0.001 and sigma for terminal atoms of 0.002
Uanis(O2) \\sim Ueq, Uanis(O1) \\sim Ueq, Uanis(O4) \\sim Ueq, Uanis(C1) \\sim
Ueq, Uanis(C6) \\sim Ueq, Uanis(C7) \\sim Ueq, Uanis(C3) \\sim Ueq, Uanis(C2)
\\sim Ueq, Uanis(O3) \\sim Ueq, Uanis(C8) \\sim Ueq, Uanis(C4) \\sim Ueq,
Uanis(C5) \\sim Ueq: with sigma of 0.001 and sigma for terminal atoms of 0.002
3.a Rotating group:
 O1W(H1WA,H1WB)
3.b Secondary CH2 refined with riding coordinates:
 C14(H14A,H14B), C11(H11A,H11B), C10(H10A,H10B), C9(H9A,H9B), C12(H12A,H12B),
 C13(H13A,H13B)
3.c Aromatic/amide H refined with riding coordinates:
 C6(H6), C3(H3), C2(H2), C5(H5)
;
_shelx_hkl_file
;
  -8  -1   0   39.11   17.04
  -8  -1   1    8.17   17.58
  -8  -1   2    1.28   16.66
  -7  -3  -3   20.68   17.98
  -7  -3  -2   54.64   19.14
  -7  -3  -1   28.62   17.26
  -7  -3   0   97.03   18.86
  -7  -3   1   20.59   15.74
  -7  -3   2   24.37   16.53
  -7  -3   3   25.37   17.47
  -7  -3   4    8.27   16.22
  -7  -3   5   46.88   18.88
  -7  -3   6    0.90   16.96
  -7  -2  -3   12.53   15.06
  -7  -2  -2   25.31   14.05
  -7  -2  -1    0.79   15.62
  -7  -2   0   44.27   10.77
  -7  -2   1    1.72   10.10
  -7  -2   2   17.76   14.02
  -7  -2   3   11.79   15.47
  -7  -2   4   11.48   15.24
  -7  -2   5   25.45   13.01
  -7  -2   6    0.17   16.48
  -7  -2   7    4.64   15.22
  -7  -1  -5   17.18   17.06
  -7  -1  -4   25.76   15.70
  -7  -1  -1   15.42   16.80
  -7  -1   0   90.32   17.15
  -7  -1   1   16.90   13.14
  -7  -1   2   30.68   15.11
  -7  -1   3    6.56    8.06
  -7  -1   4   26.96   15.24
  -7  -1   5   32.03   14.07
  -7  -1   6   26.10   14.16
  -7   1  -2   27.07   14.83
  -7   1  -1   24.62   13.46
  -7   1   0   43.93   14.85
  -7   1   1   26.97   15.07
  -7   1   2   36.20   10.32
  -7   1   3    8.59    8.45
  -7   1   4   31.65   10.67
  -7   1   5   66.25   24.30
  -7   1   6   48.17   12.17
  -7   1   7   20.08   13.83
  -7   2  -2   25.68   17.53
  -7   2  -1   18.98   17.12
  -7   2   0   45.52   17.82
  -7   2   1   35.23   10.55
  -7   2   2   26.06   11.32
  -7   2   3   11.96   11.21
  -7   2   4   12.16   11.70
  -7   2   5    3.29   11.81
  -7   2   6   17.24   12.55
  -7   3  -1   13.23   16.90
  -7   3   0   45.03   18.90
  -7   3   1   57.81   12.00
  -7   3   2   68.29   12.48
  -7   3   3   29.74   12.14
  -7   3   4   47.30   12.81
  -7   3   5   30.03   18.46
  -7   4   1   65.46   16.90
  -7   4   2   40.57   16.71
  -7   4   3   24.01   17.41
  -7   4   4   35.31   17.65
  -7   5   1   21.71   17.39
  -6  -5  -1    3.58   18.66
  -6  -5   0   13.58   18.30
  -6  -5   1    4.46   18.53
  -6  -5   2   19.93   18.71
  -6  -5   3   16.57   17.44
  -6  -4  -4  101.13   21.09
  -6  -4  -3   40.47   18.64
  -6  -4  -2   48.02   17.68
  -6  -4  -1   14.06   17.02
  -6  -4   0   91.72   19.13
  -6  -4   1   86.11   18.85
  -6  -4   2   91.38   19.35
  -6  -4   3   47.82   18.22
  -6  -4   4   61.61   17.74
  -6  -4   5   59.96   18.73
  -6  -4   6   41.98   18.69
  -6  -3  -5    2.66   16.11
  -6  -3  -4  108.87   19.68
  -6  -3  -3   75.55   17.59
  -6  -3  -2  106.19   17.80
  -6  -3  -1   76.89   17.37
  -6  -3   0  105.71   17.30
  -6  -3   1   99.28   17.33
  -6  -3   2   90.63   16.46
  -6  -3   3   44.75   15.88
  -6  -3   4   48.29   16.40
  -6  -3   5   26.67   16.59
  -6  -3   6   62.33   16.91
  -6  -3   7   30.43   15.99
  -6  -3   8   36.15   17.15
  -6  -2  -7   41.73   18.58
  -6  -2  -6   55.79   18.61
  -6  -2  -5    8.55   16.64
  -6  -2  -4   96.12   15.95
  -6  -2  -3   49.85   15.34
  -6  -2  -2   26.62   14.26
  -6  -2  -1    3.60   13.32
  -6  -2   0   27.19    9.61
  -6  -2   1   38.90    8.70
  -6  -2   2   59.51    9.67
  -6  -2   3   85.09   10.01
  -6  -2   4   68.02   10.05
  -6  -2   5   40.34    9.25
  -6  -2   6   25.11   13.58
  -6  -2   7   12.20   14.56
  -6  -2   8    0.19   14.14
  -6  -2   9   39.63   17.19
  -6  -1  -7   63.82   17.27
  -6  -1  -6   66.56   17.25
  -6  -1  -5   22.86   11.83
  -6  -1  -4   92.16   16.19
  -6  -1  -3   61.42   12.23
  -6  -1  -2   62.10   12.69
  -6  -1  -1   80.50   17.02
  -6  -1   0  130.66    9.93
  -6  -1   1  141.39   11.19
  -6  -1   2  102.13    9.55
  -6  -1   3   92.00    9.42
  -6  -1   4   62.26    8.60
  -6  -1   5   50.35    8.80
  -6  -1   6   36.62    8.97
  -6  -1   7   51.49    9.60
  -6  -1   8   53.93   10.24
  -6  -1   9   81.17   11.91
  -6  -1  10   46.65   16.71
  -6   1  -3   39.53   12.86
  -6   1  -2   70.95   14.36
  -6   1  -1   80.74   14.95
  -6   1   0   74.16   11.20
  -6   1   1  105.70   10.02
  -6   1   2   79.19    9.79
  -6   1   3  160.22   12.21
  -6   1   4   80.29   13.78
  -6   1   5   55.62   14.43
  -6   1   6   13.41   13.74
  -6   1   7   40.60   14.78
  -6   1   8   13.31   13.17
  -6   1   9   32.17   14.22
  -6   2  -3   33.75   16.15
  -6   2  -2  155.84   19.04
  -6   2  -1   69.01    9.39
  -6   2   0   40.25    9.25
  -6   2   1   36.48    9.44
  -6   2   2   36.35   10.32
  -6   2   3  115.29   11.39
  -6   2   4   24.58   13.52
  -6   2   5   20.01   10.45
  -6   2   6   26.64   11.41
  -6   2   7   74.80   12.39
  -6   2   8   25.90   13.38
  -6   2   9   28.38   16.86
  -6   3  -4   67.36   18.31
  -6   3  -3   87.03   18.50
  -6   3  -2  156.25   19.63
  -6   3  -1   76.79   10.46
  -6   3   0   48.95   10.14
  -6   3   1   61.07   12.44
  -6   3   2   83.48   14.93
  -6   3   3  206.61   14.86
  -6   3   4   91.79   11.55
  -6   3   5   77.71   12.67
  -6   3   6   58.34   12.75
  -6   3   7   56.06   12.00
  -6   3   8   15.05   12.46
  -6   4  -4   16.84   17.72
  -6   4  -3   41.52   17.45
  -6   4  -2  190.88   13.19
  -6   4  -1   61.43   11.12
  -6   4   0   66.83   11.63
  -6   4   1   89.88   11.46
  -6   4   2   97.71   12.38
  -6   4   3  126.99   12.40
  -6   4   4   27.87   12.13
  -6   4   5   38.83   11.60
  -6   4   6   57.85   12.50
  -6   4   7   42.33   13.39
  -6   5  -3   52.18   18.42
  -6   5  -2  148.54   13.90
  -6   5  -1    6.59   11.21
  -6   5   0   17.29   11.03
  -6   5   1    6.34   10.59
  -6   5   2   35.73   11.77
  -6   5   3   57.35   12.55
  -6   5   4    9.86   11.59
  -6   5   5   13.36   12.29
  -6   6  -2  122.12   19.03
  -6   6  -1   40.35   16.74
  -6   6   0   36.02   12.71
  -6   6   1   52.89   12.43
  -6   6   2  112.52   19.53
  -5  -6  -2   75.94   20.63
  -5  -6  -1   44.21   19.25
  -5  -6   0   33.46   18.65
  -5  -6   1   48.41   18.39
  -5  -6   2   34.14   19.34
  -5  -6   3   66.26   19.80
  -5  -5  -5   21.10   19.07
  -5  -5  -4   52.86   18.76
  -5  -5  -3   82.37   18.46
  -5  -5  -2   87.44   19.20
  -5  -5  -1   21.17   16.10
  -5  -5   0    8.05   15.52
  -5  -5   1   11.30   15.57
  -5  -5   2   38.58   17.06
  -5  -5   3  109.64   19.32
  -5  -5   4   63.09   17.60
  -5  -5   5   63.61   19.20
  -5  -5   6   30.39   17.83
  -5  -4  -6   31.65   18.26
  -5  -4  -5   22.49   16.17
  -5  -4  -4   21.42   16.02
  -5  -4  -3   28.96   15.81
  -5  -4  -2  107.22   17.79
  -5  -4  -1    5.38   14.85
  -5  -4   0   29.12   15.17
  -5  -4   1   57.26   15.85
  -5  -4   2   79.05   16.63
  -5  -4   3  165.09   18.60
  -5  -4   4   26.51   15.97
  -5  -4   5   38.76   15.51
  -5  -4   6    3.79   14.77
  -5  -4   7   64.99   17.86
  -5  -4   8   20.45   16.91
  -5  -3  -7   46.85   18.54
  -5  -3  -6   61.13   17.49
  -5  -3  -5   46.80   17.38
  -5  -3  -4   93.97   15.99
  -5  -3  -3  161.80   18.24
  -5  -3  -2  349.28   21.53
  -5  -3  -1   76.35   14.78
  -5  -3   0   68.17   14.64
  -5  -3   1   41.81    7.94
  -5  -3   2  120.86    9.79
  -5  -3   3  233.33   11.35
  -5  -3   4   73.74   14.32
  -5  -3   5  114.62   16.24
  -5  -3   6   88.28   16.09
  -5  -3   7  195.32   18.70
  -5  -3   8   42.84   15.82
  -5  -3   9   55.83   17.68
  -5  -2  -8    1.07   17.47
  -5  -2  -7   10.96   15.56
  -5  -2  -6    0.28   14.78
  -5  -2  -4   24.85   14.15
  -5  -2  -3   60.88   13.57
  -5  -2  -2  264.44   17.83
  -5  -2  -1   20.57    7.99
  -5  -2   0    7.39    7.09
  -5  -2   1    8.70    7.27
  -5  -2   2  109.70    8.96
  -5  -2   3  256.05   24.67
  -5  -2   4   31.13    8.18
  -5  -2   5   84.64    8.65
  -5  -2   6   68.21    8.94
  -5  -2   7   70.55   10.04
  -5  -2   8   24.65    9.07
  -5  -2   9   12.05   14.83
  -5  -2  10   13.76   16.06
  -5  -1  -9   52.25   16.35
  -5  -1  -8   57.38   16.04
  -5  -1  -7   41.49   14.85
  -5  -1  -6   41.76   15.36
  -5  -1  -5   14.03   13.18
  -5  -1  -4    4.97   12.06
  -5  -1  -3   17.87   10.38
  -5  -1  -2  309.57   12.37
  -5  -1  -1   17.98    6.83
  -5  -1   0   30.35    7.05
  -5  -1   1   30.55    6.58
  -5  -1   2  128.15    8.73
  -5  -1   3  148.65    9.66
  -5  -1   4    5.59    6.22
  -5  -1   5   26.19    7.47
  -5  -1   6   63.73    8.55
  -5  -1   7   60.79    8.62
  -5  -1   8   31.10    8.92
  -5  -1   9   32.06    8.97
  -5  -1  10   37.32    8.55
  -5  -1  11   83.04   11.56
  -5  -1  12   14.58   14.72
  -5   1 -10   24.42   15.67
  -5   1  -9   39.45   13.38
  -5   1  -8   32.02   12.04
  -5   1  -7   44.43   12.35
  -5   1  -6   21.61    8.38
  -5   1  -5    4.35    8.04
  -5   1  -4    5.19    8.09
  -5   1  -3   15.28    4.88
  -5   1  -2  189.88   17.74
  -5   1  -1   18.04    4.52
  -5   1   0   32.16    4.74
  -5   1   1   33.26    4.76
  -5   1   2   91.23    6.14
  -5   1   3  103.65    6.68
  -5   1   4   31.54    8.22
  -5   1   5   37.28    5.43
  -5   1   6   89.71    8.96
  -5   1   7   26.12    6.91
  -5   1   8   29.67    8.46
  -5   1   9   34.87   13.83
  -5   1  10   60.74   16.47
  -5   1  11   68.11   14.98
  -5   2  -7   70.51   14.64
  -5   2  -6    4.97   12.17
  -5   2  -5   15.51   10.03
  -5   2  -4   14.92    8.65
  -5   2  -3   69.67    6.52
  -5   2  -2  316.01    8.72
  -5   2  -1    5.17    5.06
  -5   2   0   31.39    5.15
  -5   2   1   25.05    8.60
  -5   2   2   53.03    8.90
  -5   2   3   67.07    9.98
  -5   2   4   32.43    8.83
  -5   2   5   61.19   11.11
  -5   2   6  189.07   12.11
  -5   2   7   65.69   13.87
  -5   2   8   64.17   16.38
  -5   2   9   59.46   16.08
  -5   2  10   24.04   16.37
  -5   3  -4   85.32    9.94
  -5   3  -3  148.73    9.90
  -5   3  -2  344.88   13.93
  -5   3  -1    2.67    7.74
  -5   3   0   58.97    9.66
  -5   3   1   68.58    9.00
  -5   3   2   76.22   11.06
  -5   3   3  142.09   10.75
  -5   3   4  133.87   12.97
  -5   3   5  144.16   11.50
  -5   3   6  287.83   41.93
  -5   3   7   67.85   11.63
  -5   3   8   76.55   12.96
  -5   3   9   67.21   12.97
  -5   3  10   83.20   14.24
  -5   4  -4   11.25    9.22
  -5   4  -3   20.27    9.60
  -5   4  -2  106.47   10.36
  -5   4  -1    6.55    8.61
  -5   4   0   51.09    9.46
  -5   4   1   72.36   13.51
  -5   4   2   35.83    9.42
  -5   4   3   35.28   10.38
  -5   4   4   12.75    9.50
  -5   4   5    5.52    9.97
  -5   4   6   58.72   10.89
  -5   4   7   65.42   12.03
  -5   4   8   54.11   12.31
  -5   4   9   39.62   12.93
  -5   5  -4   43.29   11.49
  -5   5  -3   85.71   10.55
  -5   5  -2  146.06   12.88
  -5   5  -1   17.43    9.90
  -5   5   0   12.49   10.18
  -5   5   1    8.09    9.41
  -5   5   2   12.65    9.82
  -5   5   3   36.31   10.23
  -5   5   4   46.71   12.10
  -5   5   5   51.63   10.88
  -5   5   6  150.53   20.69
  -5   5   7   91.90   16.71
  -5   5   8   52.92   34.45
  -5   6  -4   10.18   11.18
  -5   6  -3   23.97   14.03
  -5   6  -2   69.97   11.74
  -5   6  -1   11.10   10.59
  -5   6   0   23.75   10.19
  -5   6   1   60.59   11.54
  -5   6   2   18.47   10.80
  -5   6   3   45.97   11.83
  -5   6   4   30.46   10.80
  -5   6   5   19.76   12.34
  -5   6   6   56.67   13.07
  -5   7  -4    2.09   11.89
  -5   7  -3   26.43   11.91
  -5   7  -2   65.91   13.29
  -5   7  -1   47.35   16.54
  -5   7   0   19.64   12.38
  -5   7   1   35.39   11.80
  -5   7   2   12.41   11.93
  -5   7   3   14.73   15.43
  -5   7   4   14.51   16.21
  -4  -7  -2  121.01   21.92
  -4  -7  -1   23.42   18.15
  -4  -7   0    3.30   17.36
  -4  -7   1   16.67   17.62
  -4  -7   2   43.07   19.24
  -4  -7   3   77.26   19.78
  -4  -6  -5   25.51   17.37
  -4  -6  -4   25.80   17.42
  -4  -6  -3   22.22   17.36
  -4  -6  -2  135.56   19.85
  -4  -6  -1    3.94   16.19
  -4  -6   0   25.93   16.29
  -4  -6   1   57.82   17.34
  -4  -6   2   69.38   17.37
  -4  -6   3   56.28   18.39
  -4  -6   4    0.23   16.26
  -4  -6   5    6.57   16.25
  -4  -6   6   44.50   11.66
  -4  -6   7   68.49   19.14
  -4  -6   8   45.18   18.74
  -4  -5  -7   29.55   18.30
  -4  -5  -6   21.34   16.73
  -4  -5  -5   25.39   17.51
  -4  -5  -4   67.85   17.49
  -4  -5  -3   95.56   17.09
  -4  -5  -2  216.84   20.58
  -4  -5  -1    5.17   14.13
  -4  -5   0    0.13   13.72
  -4  -5   1    0.31   13.68
  -4  -5   2   20.68   14.82
  -4  -5   3   58.59   15.41
  -4  -5   4    8.13   14.71
  -4  -5   5   47.99   15.06
  -4  -5   6  107.66   13.21
  -4  -5   7   62.41   23.21
  -4  -5   8   48.43   12.63
  -4  -5   9   23.39   17.65
  -4  -5  10    8.19   16.66
  -4  -4  -8   72.51   19.63
  -4  -4  -7   80.42   18.90
  -4  -4  -6    5.60   15.24
  -4  -4  -5   10.30   14.79
  -4  -4  -4    6.28   13.86
  -4  -4  -3   15.43   14.24
  -4  -4  -2  158.09   16.44
  -4  -4  -1    3.00   13.02
  -4  -4   0   22.87   12.87
  -4  -4   1   72.97   14.75
  -4  -4   2   95.65   14.83
  -4  -4   3   38.87   14.28
  -4  -4   4   15.70   13.19
  -4  -4   5    4.42    9.11
  -4  -4   6   36.05    9.38
  -4  -4   7   37.32    9.98
  -4  -4   8   57.67   11.00
  -4  -4   9   48.74   11.28
  -4  -4  10   34.83   11.47
  -4  -3  -9   68.67   18.82
  -4  -3  -8  119.94   20.35
  -4  -3  -7  206.10   20.61
  -4  -3  -6   66.53   16.35
  -4  -3  -5   95.93   15.50
  -4  -3  -4  182.79   19.35
  -4  -3  -3  182.14   15.52
  -4  -3  -2  431.86   22.14
  -4  -3  -1    3.49   11.29
  -4  -3   0   90.98   13.99
  -4  -3   1  116.53    7.63
  -4  -3   2  129.43    8.21
  -4  -3   3   98.17    6.73
  -4  -3   4   48.58    9.47
  -4  -3   5  110.11    5.91
  -4  -3   6  229.56   14.77
  -4  -3   7  125.05   10.52
  -4  -3   8   91.40   10.91
  -4  -3   9   58.55   10.46
  -4  -3  10   19.94   16.29
  -4  -3  11   18.99   16.59
  -4  -2 -10   23.29   11.98
  -4  -2  -9   32.67   11.54
  -4  -2  -8   47.99   10.80
  -4  -2  -7   87.72   10.45
  -4  -2  -6    2.10   13.07
  -4  -2  -4   75.54   11.68
  -4  -2  -3   81.58   13.12
  -4  -2  -2  300.03    7.98
  -4  -2  -1    3.15    6.45
  -4  -2   0   53.32    6.94
  -4  -2   1   53.34    7.21
  -4  -2   2   56.08    8.61
  -4  -2   3   36.12    7.10
  -4  -2   4   26.57    6.32
  -4  -2   5   52.11    8.51
  -4  -2   6  150.71    6.79
  -4  -2   7   82.91    6.97
  -4  -2   8   59.25    6.78
  -4  -2   9   48.59    7.37
  -4  -2  10   14.92    9.53
  -4  -2  11   15.71   13.71
  -4  -1 -10   20.49   16.59
  -4  -1  -9   90.10   16.91
  -4  -1  -8  109.94   16.36
  -4  -1  -7  147.89   16.55
  -4  -1  -6    4.13    4.25
  -4  -1  -5   10.63   11.12
  -4  -1  -4   21.80   11.15
  -4  -1  -3   43.49    2.16
  -4  -1  -2  179.82   10.96
  -4  -1  -1   10.66    6.20
  -4  -1   0  100.45    7.68
  -4  -1   1  133.07    7.29
  -4  -1   2   69.51    6.60
  -4  -1   3   31.11    5.13
  -4  -1   4    8.96    6.45
  -4  -1   5    5.29    6.47
  -4  -1   6   56.12    6.58
  -4  -1   7  164.61    7.11
  -4  -1   8   88.82    8.41
  -4  -1   9   74.48   13.10
  -4  -1  10    9.77   12.25
  -4  -1  11    3.72   16.72
  -4  -1  12   68.61   15.76
  -4  -1  13   18.53   20.52
  -4   1 -11   26.54   17.24
  -4   1 -10   25.62   14.63
  -4   1  -9  123.90   16.42
  -4   1  -8   98.78   13.87
  -4   1  -7  164.66   15.56
  -4   1  -6    9.48   10.98
  -4   1  -5   11.31    8.79
  -4   1  -4   13.51    6.85
  -4   1  -3   32.18    3.47
  -4   1  -2  109.69   11.38
  -4   1  -1   42.47    4.00
  -4   1   0  108.06    5.67
  -4   1   1  106.54    7.89
  -4   1   2  124.06    4.90
  -4   1   3   84.39    5.72
  -4   1   4    9.60    5.53
  -4   1   5    7.79    5.60
  -4   1   6   91.72   13.70
  -4   1   7  157.86   14.15
  -4   1   8   55.34   13.10
  -4   1   9  118.12   15.60
  -4   1  10   20.28   13.75
  -4   1  11    5.39   12.24
  -4   1  12   65.62   13.26
  -4   2 -11   32.41   17.73
  -4   2 -10   17.88   15.44
  -4   2  -9   82.06   16.43
  -4   2  -8   83.79   15.47
  -4   2  -7  135.93   15.67
  -4   2  -6    4.32   10.75
  -4   2  -5   59.25    7.50
  -4   2  -4   77.61    5.25
  -4   2  -3  116.53    6.96
  -4   2  -2  146.84    5.67
  -4   2  -1   50.06    5.32
  -4   2   0   48.72    4.17
  -4   2   1   62.18    6.33
  -4   2   2   67.89    4.87
  -4   2   3   61.93    3.86
  -4   2   4   46.03    3.74
  -4   2   5   44.20    9.45
  -4   2   6   67.91   12.73
  -4   2   7  228.94   18.56
  -4   2   8   33.31   13.03
  -4   2   9    9.65   14.11
  -4   2  10    7.18   15.11
  -4   2  11    4.77   15.86
  -4   3 -11   71.49   19.45
  -4   3 -10   44.42   17.73
  -4   3  -9   92.59   16.60
  -4   3  -8   84.29   14.44
  -4   3  -7  129.14   14.00
  -4   3  -6   47.27   11.74
  -4   3  -5  107.48    9.52
  -4   3  -4  116.34    7.19
  -4   3  -3  229.00    8.90
  -4   3  -2  250.62    9.26
  -4   3  -1  176.90    4.26
  -4   3   0  136.68   10.37
  -4   3   1  154.49   13.75
  -4   3   2  188.20   10.58
  -4   3   3  157.00   10.54
  -4   3   4  106.94    5.12
  -4   3   5   92.20    9.97
  -4   3   6  126.75   11.85
  -4   3   7  282.24   13.86
  -4   3   8   90.71   12.58
  -4   3   9   48.08   10.97
  -4   3  10   39.54   12.20
  -4   3  11   18.25   12.79
  -4   4  -6   38.52   11.83
  -4   4  -5   24.45   11.75
  -4   4  -4   14.55    8.47
  -4   4  -3   54.72    9.02
  -4   4  -2   56.82    7.91
  -4   4  -1   55.51    9.41
  -4   4   0   54.57    8.48
  -4   4   1   84.32    9.52
  -4   4   2  173.22   11.15
  -4   4   3   60.47    8.84
  -4   4   4    9.32    8.57
  -4   4   5    2.58    8.99
  -4   4   6   10.58    9.29
  -4   4   7  149.90   13.21
  -4   4   8   43.34   11.13
  -4   4   9   35.87   11.79
  -4   4  10   25.59   14.15
  -4   4  11   16.79   18.52
  -4   5  -6   23.03   13.30
  -4   5  -5   33.07   13.71
  -4   5  -4   56.75   10.46
  -4   5  -3  129.61   11.20
  -4   5  -2   99.26   11.23
  -4   5  -1   46.38    8.68
  -4   5   0   29.09    9.92
  -4   5   1   39.53    9.23
  -4   5   2   53.12   10.82
  -4   5   3   36.73    9.54
  -4   5   4   39.47    9.41
  -4   5   5   36.69   10.46
  -4   5   6   47.60   10.79
  -4   5   7  150.63   13.05
  -4   5   8   11.58   19.26
  -4   5   9    1.69   11.98
  -4   6  -6   48.14   15.94
  -4   6  -5   23.57   13.84
  -4   6  -4   45.36   11.48
  -4   6  -3   64.71   11.24
  -4   6  -2   71.97   10.76
  -4   6  -1   82.15   11.34
  -4   6   0   79.96   10.59
  -4   6   1   79.70   10.98
  -4   6   2  202.17   12.79
  -4   6   3   52.11   10.68
  -4   6   4   22.69   12.79
  -4   6   5   10.81   10.16
  -4   6   6   16.81   10.48
  -4   6   7  102.41   13.52
  -4   6   8   36.69   12.37
  -4   7  -5   40.43   17.22
  -4   7  -4   61.24   11.77
  -4   7  -3   65.57   11.98
  -4   7  -2   48.39   11.73
  -4   7  -1   42.47   10.92
  -4   7   0   31.80   11.18
  -4   7   1   37.13   10.51
  -4   7   2   96.04   12.20
  -4   7   3   36.15   10.76
  -4   7   4   25.09   11.23
  -4   7   5   17.66   11.49
  -4   7   6   13.74   14.65
  -4   7   7   67.67   18.07
  -4   8   1    9.79   15.06
  -4   8   2   31.84   15.65
  -4   8   3    7.10   15.11
  -4   8   4   13.01   15.16
  -4   8   5    6.98   15.83
  -3  -8  -1    0.55   18.86
  -3  -8   0   27.61   18.60
  -3  -8   1   22.81   18.52
  -3  -8   2   18.16   19.07
  -3  -7  -5   41.58   18.11
  -3  -7  -4   64.38   19.92
  -3  -7  -3   54.46   17.44
  -3  -7  -2  111.19   20.00
  -3  -7  -1    0.43   16.43
  -3  -7   0   68.13   17.88
  -3  -7   1   78.01   17.61
  -3  -7   2   65.94   18.80
  -3  -7   3    6.30   15.98
  -3  -7   4   12.62   11.68
  -3  -7   5   26.29   12.21
  -3  -7   6   62.08   13.52
  -3  -6  -7  114.00   21.88
  -3  -6  -6   19.94   16.66
  -3  -6  -5   53.98   18.30
  -3  -6  -4   79.41   16.36
  -3  -6  -3   64.83   17.62
  -3  -6  -2  103.36   17.42
  -3  -6  -1   44.14   16.06
  -3  -6   0  119.75   17.62
  -3  -6   1  173.35   19.59
  -3  -6   2  128.78   17.57
  -3  -6   3   62.84   17.22
  -3  -6   4   38.79   10.68
  -3  -6   5   20.72   11.44
  -3  -6   6   37.35   11.20
  -3  -6   7  121.87   13.61
  -3  -6   8   58.08   12.66
  -3  -6   9   53.27   19.47
  -3  -5  -8   58.45   19.18
  -3  -5  -7   56.90   17.67
  -3  -5  -6   11.61   15.55
  -3  -5  -5  104.88   16.45
  -3  -5  -4  112.36   17.81
  -3  -5  -3   86.42   14.58
  -3  -5  -2   90.81   16.17
  -3  -5  -1   14.53   12.79
  -3  -5   0   82.80   15.21
  -3  -5   1   75.08   14.92
  -3  -5   2   47.35   14.06
  -3  -5   3   37.16    8.96
  -3  -5   4   48.93   10.14
  -3  -5   5   33.68    9.63
  -3  -5   6   45.65   11.16
  -3  -5   7  103.86   11.94
  -3  -5   8    8.81   10.60
  -3  -5   9    5.96   10.99
  -3  -5  10    1.34   15.65
  -3  -5  11    0.39   18.11
  -3  -4  -9  139.01   21.59
  -3  -4  -8   92.19   19.12
  -3  -4  -7  111.06   11.29
  -3  -4  -6   64.52    9.61
  -3  -4  -5   68.68    9.00
  -3  -4  -4   97.56    7.67
  -3  -4  -3   78.84    6.45
  -3  -4  -2   74.65   16.49
  -3  -4  -1  111.47   14.91
  -3  -4   0  170.88   15.05
  -3  -4   1  221.31   16.24
  -3  -4   2  271.65   17.58
  -3  -4   3  101.30    9.68
  -3  -4   4   45.13    8.56
  -3  -4   5   17.43    8.72
  -3  -4   6   36.87    8.72
  -3  -4   7  213.38   14.53
  -3  -4   8   70.65   10.50
  -3  -4   9   73.71   11.81
  -3  -4  10   30.30   10.83
  -3  -4  11   17.60   15.34
  -3  -4  12   63.97   18.53
  -3  -3 -12    1.84   18.43
  -3  -3 -11   27.71   16.73
  -3  -3 -10   35.04   12.37
  -3  -3  -9  124.35   12.83
  -3  -3  -8   83.65   10.88
  -3  -3  -7  159.64   11.09
  -3  -3  -6  125.89   21.05
  -3  -3  -5  226.02   10.16
  -3  -3  -4  243.81    9.52
  -3  -3  -3  208.56    5.64
  -3  -3  -2  191.75   17.63
  -3  -3  -1  209.75   13.65
  -3  -3   0  260.01   16.95
  -3  -3   1  312.36   13.91
  -3  -3   2  399.42   17.06
  -3  -3   3  247.74    6.80
  -3  -3   4  153.20    6.07
  -3  -3   5  104.05    6.13
  -3  -3   6   41.05    5.80
  -3  -3   7  405.46   10.52
  -3  -3   8   73.52    7.43
  -3  -3   9   65.52    7.80
  -3  -3  10   18.04    9.21
  -3  -3  11   26.02   10.46
  -3  -3  12  107.81   12.34
  -3  -2 -12   16.58   20.06
  -3  -2 -11   46.71   13.04
  -3  -2 -10   42.56   11.55
  -3  -2  -9   69.50   11.70
  -3  -2  -8   35.24    9.20
  -3  -2  -7   78.53   10.18
  -3  -2  -6   73.57    9.01
  -3  -2  -5  126.90    8.44
  -3  -2  -4  167.25   10.98
  -3  -2  -3  124.92    7.59
  -3  -2  -2  125.17    5.16
  -3  -2  -1  119.44   13.02
  -3  -2   0  123.21    6.57
  -3  -2   1  115.89    6.95
  -3  -2   2  340.83   10.82
  -3  -2   3  103.24    5.33
  -3  -2   4   31.76    4.91
  -3  -2   5   18.60    4.77
  -3  -2   6   10.85    4.98
  -3  -2   7  324.10   11.62
  -3  -2   8   57.11    8.01
  -3  -2   9   41.66    8.91
  -3  -2  10   12.93    8.47
  -3  -2  11   19.90    9.74
  -3  -2  12   26.87   16.77
  -3  -2  13    0.91   17.06
  -3  -1 -12    0.81   17.44
  -3  -1 -11   35.91   10.84
  -3  -1 -10   30.89    9.80
  -3  -1  -9   93.46   10.66
  -3  -1  -8  106.58   10.44
  -3  -1  -7  145.73   10.23
  -3  -1  -6  110.01   15.92
  -3  -1  -5  103.70   16.39
  -3  -1  -4   89.94   13.59
  -3  -1  -3  106.36   11.25
  -3  -1  -2  133.48   11.11
  -3  -1  -1  157.31    6.88
  -3  -1   0  196.16   12.74
  -3  -1   1  326.92    9.18
  -3  -1   2  965.79   19.10
  -3  -1   3  250.66    8.68
  -3  -1   4   49.99    4.47
  -3  -1   5   25.28    7.53
  -3  -1   6    1.95    4.92
  -3  -1   7  427.74   18.22
  -3  -1   8   88.24    9.78
  -3  -1   9   99.02   15.59
  -3  -1  10   87.36    8.84
  -3  -1  11   28.26   12.86
  -3  -1  12   59.81   17.55
  -3  -1  13   20.82   32.41
  -3   1 -11   39.18   15.60
  -3   1 -10   58.92   14.87
  -3   1  -9  107.19   15.13
  -3   1  -8  102.26   13.50
  -3   1  -7  109.44   13.61
  -3   1  -6   88.89   10.27
  -3   1  -5  101.25   12.60
  -3   1  -4  270.55    8.81
  -3   1  -3  151.90    5.67
  -3   1  -2  180.53    5.78
  -3   1  -1  121.93    5.00
  -3   1   0  288.06    5.70
  -3   1   1  304.29   15.14
  -3   1   2  941.12   35.77
  -3   1   3  183.58    5.70
  -3   1   4   29.54    3.83
  -3   1   5   40.60   10.50
  -3   1   6   11.71    3.36
  -3   1   7  308.76   19.15
  -3   1   8   88.17    9.52
  -3   1   9   66.38   13.02
  -3   1  10  105.41   14.37
  -3   1  11   60.78   15.89
  -3   1  12   23.88   13.11
  -3   2 -11   12.10   16.03
  -3   2 -10    1.05   14.26
  -3   2  -9   25.80   13.95
  -3   2  -8   67.71   14.10
  -3   2  -7   64.99   12.30
  -3   2  -6   45.17   11.22
  -3   2  -5   61.26    4.44
  -3   2  -4  281.04    9.27
  -3   2  -3   79.35    5.25
  -3   2  -2   84.04    5.12
  -3   2  -1   42.80    4.76
  -3   2   0   88.41    4.71
  -3   2   1  113.62    6.55
  -3   2   2  577.12   12.16
  -3   2   3  132.45    5.19
  -3   2   4   59.03    5.59
  -3   2   5   80.48   11.67
  -3   2   6   43.09   11.04
  -3   2   7  175.31    5.02
  -3   2   8   44.89   13.68
  -3   2   9   25.51   12.77
  -3   2  10   42.36   15.18
  -3   2  11   23.96   15.55
  -3   2  12   37.67   17.36
  -3   3 -11   33.01   17.00
  -3   3 -10   46.83   15.50
  -3   3  -9   92.86   16.27
  -3   3  -8  106.99   14.81
  -3   3  -7   78.07   12.22
  -3   3  -6   73.37   11.23
  -3   3  -5  160.06    8.91
  -3   3  -4  467.56   12.68
  -3   3  -3  233.88    6.84
  -3   3  -2  272.94    8.44
  -3   3  -1  116.46    7.12
  -3   3   0  296.69   26.75
  -3   3   1  226.80   28.49
  -3   3   2  564.41   13.47
  -3   3   3  202.30    8.77
  -3   3   4  183.54   12.30
  -3   3   5  136.69    6.32
  -3   3   6  119.10   11.02
  -3   3   7  210.15   24.56
  -3   3   8  127.69   18.63
  -3   3   9   72.82   11.68
  -3   3  10  109.62   12.28
  -3   3  11   50.38   11.98
  -3   3  12   47.81   13.21
  -3   3  13   34.82   18.69
  -3   4 -11   15.70   16.69
  -3   4 -10   25.91   16.08
  -3   4  -9  132.57   16.20
  -3   4  -8   59.22   13.80
  -3   4  -7   50.38   11.94
  -3   4  -6   36.66   10.82
  -3   4  -5   98.20    7.90
  -3   4  -4  210.80    7.67
  -3   4  -3   66.79    5.76
  -3   4  -2  117.61    8.69
  -3   4  -1   46.24    7.37
  -3   4   0  226.46   13.49
  -3   4   1  222.73    9.87
  -3   4   2  450.38   23.99
  -3   4   3  178.91    7.04
  -3   4   4  129.29    9.60
  -3   4   5   39.94    9.12
  -3   4   6   50.61    8.77
  -3   4   7  104.42   11.95
  -3   4   8  109.77   12.42
  -3   4   9   85.10   11.33
  -3   4  10  127.31   21.43
  -3   4  11   62.98   13.43
  -3   4  12   46.91   19.40
  -3   5  -5   41.88   13.05
  -3   5  -4  153.57   11.60
  -3   5  -3   19.78    8.38
  -3   5  -2   31.57    7.91
  -3   5  -1   10.12    7.37
  -3   5   0   48.26    7.92
  -3   5   1   25.17    8.29
  -3   5   2   96.17    9.53
  -3   5   3   57.48    8.59
  -3   5   4   86.65   10.40
  -3   5   5   24.04    8.22
  -3   5   6   41.13   10.07
  -3   5   7   35.23   10.99
  -3   5   8   33.35   10.34
  -3   5   9    4.40   10.46
  -3   5  10   49.09   13.15
  -3   5  11    1.78   18.66
  -3   6  -5   77.90   17.37
  -3   6  -4  159.53   11.12
  -3   6  -3   48.04   11.51
  -3   6  -2  124.18   10.87
  -3   6  -1  123.02   10.26
  -3   6   0  113.58   11.04
  -3   6   1  127.57   10.57
  -3   6   2  228.16   12.17
  -3   6   3  134.14   11.33
  -3   6   4  154.01   14.79
  -3   6   5   25.09   10.12
  -3   6   6   49.67   10.08
  -3   6   7   90.72   12.29
  -3   6   8  106.00   12.56
  -3   6   9   74.67   13.01
  -3   6  10   83.35   21.36
  -3   7  -5   50.33   16.91
  -3   7  -4   99.65   19.71
  -3   7  -3   15.92    9.46
  -3   7  -2   40.65   10.02
  -3   7  -1   45.99   10.28
  -3   7   0    7.98    9.28
  -3   7   1   57.69   13.86
  -3   7   2  113.21   19.09
  -3   7   3  112.17   11.41
  -3   7   4   97.69   11.45
  -3   7   5   26.66   10.07
  -3   7   6   33.64   11.74
  -3   7   7   41.66   12.88
  -3   7   8   41.21   13.06
  -3   8  -3   19.23   17.85
  -3   8  -2    9.98   16.95
  -3   8  -1   30.74   17.01
  -3   8   0    4.41   16.50
  -3   8   1    3.12   16.11
  -3   8   2   21.14   17.54
  -3   8   3   31.24   17.80
  -3   8   4   12.98   10.70
  -3   8   5   22.50   14.64
  -3   8   6    5.84   13.82
  -3   8   7   21.81   16.30
  -2  -8  -5   35.18   19.05
  -2  -8  -4    9.48   17.12
  -2  -8  -3    4.77   16.55
  -2  -8  -2    4.40   16.40
  -2  -8  -1    9.18   16.14
  -2  -8   0    0.28   15.83
  -2  -8   1    6.89   15.89
  -2  -8   2   44.39   18.45
  -2  -8   3   17.57   11.90
  -2  -8   4   24.97   14.52
  -2  -8   5   23.74   17.71
  -2  -7  -7   15.70   17.33
  -2  -7  -6   58.62   17.44
  -2  -7  -5   84.80   19.13
  -2  -7  -4   85.58   17.83
  -2  -7  -3   65.97   17.12
  -2  -7  -2    8.83   15.51
  -2  -7  -1   54.85   16.76
  -2  -7   0   56.64   16.01
  -2  -7   1   62.18   16.12
  -2  -7   2  120.73   17.67
  -2  -7   3   45.97   11.72
  -2  -7   4   35.80   11.03
  -2  -7   5   37.75   12.01
  -2  -7   6   11.16   11.73
  -2  -7   7  132.61   14.82
  -2  -6  -9   36.41   18.68
  -2  -6  -8   41.52   18.00
  -2  -6  -7   47.68   17.05
  -2  -6  -6  104.59   18.84
  -2  -6  -5  140.06   17.40
  -2  -6  -4  144.83   18.55
  -2  -6  -3   72.91   14.75
  -2  -6  -2   52.81   14.22
  -2  -6  -1   88.70   14.69
  -2  -6   0  137.50   17.24
  -2  -6   1  119.14   15.64
  -2  -6   2  288.61   14.74
  -2  -6   3  137.50   11.65
  -2  -6   4   82.94   11.49
  -2  -6   5  101.34   11.30
  -2  -6   6   38.43   11.12
  -2  -6   7  213.42   14.45
  -2  -6   8   35.72   11.91
  -2  -6   9   52.68   12.63
  -2  -5 -10    4.88   17.45
  -2  -5  -9   13.56   11.65
  -2  -5  -8   11.51   10.54
  -2  -5  -7   13.78   10.27
  -2  -5  -6   30.05    9.06
  -2  -5  -5   45.05    9.90
  -2  -5  -4  118.42   15.58
  -2  -5  -3   33.61   13.12
  -2  -5  -2    1.36   11.68
  -2  -5  -1    7.77   11.55
  -2  -5   0   23.99   11.37
  -2  -5   1   15.99    5.21
  -2  -5   2  139.19   10.26
  -2  -5   3   24.12    8.41
  -2  -5   4   35.94    9.15
  -2  -5   5   81.14    9.39
  -2  -5   6   63.89    9.99
  -2  -5   7   89.77   14.29
  -2  -5   8    1.26    9.94
  -2  -5   9   12.22   10.70
  -2  -5  10   11.80   11.17
  -2  -5  11   21.80   17.03
  -2  -4 -12   51.42   21.17
  -2  -4 -11   41.61   22.44
  -2  -4 -10   67.18   13.81
  -2  -4  -9   68.76   11.54
  -2  -4  -8   43.77   10.99
  -2  -4  -7   31.00    9.46
  -2  -4  -6   93.15    9.60
  -2  -4  -5  136.46    9.05
  -2  -4  -4  271.43   15.13
  -2  -4  -3   99.41   13.42
  -2  -4  -2  121.64   13.91
  -2  -4  -1   71.07   10.56
  -2  -4   0  281.92   18.56
  -2  -4   1  210.27   15.55
  -2  -4   2  492.44    8.84
  -2  -4   3  132.02   11.63
  -2  -4   4   54.11    9.21
  -2  -4   5  113.55    6.14
  -2  -4   6   72.96    5.63
  -2  -4   7  227.94   11.30
  -2  -4   8   58.47    7.95
  -2  -4   9   75.34    7.82
  -2  -4  10  109.62   17.84
  -2  -4  11  108.14   18.52
  -2  -4  12   69.99   18.12
  -2  -3 -12   28.83   18.38
  -2  -3 -11   28.51   12.22
  -2  -3 -10   50.98   15.50
  -2  -3  -9   70.56   11.90
  -2  -3  -8   30.26   12.51
  -2  -3  -7   47.19    9.27
  -2  -3  -6  130.80   10.19
  -2  -3  -5  202.97   10.22
  -2  -3  -4  521.09    8.88
  -2  -3  -3   91.14    4.52
  -2  -3  -2   66.61    4.09
  -2  -3  -1   13.07    4.09
  -2  -3   0  269.87   11.78
  -2  -3   1  209.44   10.54
  -2  -3   2  572.46   42.62
  -2  -3   3  186.02    4.52
  -2  -3   4  214.68    7.13
  -2  -3   5  289.86    6.83
  -2  -3   6  212.78   11.20
  -2  -3   7  246.92   10.53
  -2  -3   8   67.32    8.25
  -2  -3   9   62.28   10.45
  -2  -3  10  139.51   11.58
  -2  -3  11  104.97   11.67
  -2  -3  12  102.25   26.02
  -2  -3  13   70.35   13.12
  -2  -2 -12   22.39   13.12
  -2  -2 -11   20.91   11.40
  -2  -2 -10   48.37   11.77
  -2  -2  -9   65.85   10.41
  -2  -2  -8   33.88    9.42
  -2  -2  -7   22.57   11.63
  -2  -2  -6   22.50    7.55
  -2  -2  -5  108.09    8.48
  -2  -2  -4  426.87   11.00
  -2  -2  -3   18.14    3.08
  -2  -2  -2   46.07    9.59
  -2  -2  -1    8.32    2.91
  -2  -2   0  191.46   15.10
  -2  -2   1   81.27    4.32
  -2  -2   2  308.45    6.20
  -2  -2   3   26.71    4.19
  -2  -2   4   76.85    4.27
  -2  -2   5  125.76    8.75
  -2  -2   6  143.58    7.36
  -2  -2   7  100.66    8.33
  -2  -2   8   39.70    8.54
  -2  -2   9   29.15    8.10
  -2  -2  10   56.05    9.94
  -2  -2  11   41.62   13.63
  -2  -2  12   41.82   10.87
  -2  -2  13   21.60   11.33
  -2  -1 -12   39.64   11.53
  -2  -1 -11   20.50    9.76
  -2  -1 -10   33.29    9.14
  -2  -1  -9  267.45   42.00
  -2  -1  -8   12.65    7.65
  -2  -1  -7   33.82    5.73
  -2  -1  -6   46.98    4.54
  -2  -1  -5  222.34    6.70
  -2  -1  -4  638.59   16.26
  -2  -1  -3   41.35    5.49
  -2  -1  -2   91.91    4.50
  -2  -1  -1   99.69    7.52
  -2  -1   0  549.30    6.73
  -2  -1   1  446.05    8.98
  -2  -1   2  724.10   14.76
  -2  -1   3  221.52    4.92
  -2  -1   4  246.76   11.71
  -2  -1   5  195.58    6.21
  -2  -1   6  176.48    9.49
  -2  -1   7  143.96   12.72
  -2  -1   8   89.79   10.64
  -2  -1   9  104.39   15.57
  -2  -1  10  134.56   16.05
  -2  -1  11  124.04   16.10
  -2  -1  12  126.12   19.39
  -2  -1  13   60.77   16.28
  -2   1 -12   37.71   11.67
  -2   1 -11   41.24    9.67
  -2   1 -10   88.86   10.55
  -2   1  -9  255.93   14.15
  -2   1  -8   13.30   10.07
  -2   1  -7   17.84    6.49
  -2   1  -6   51.91    6.46
  -2   1  -5  318.06   13.02
  -2   1  -4  611.49  121.55
  -2   1  -3   44.75    3.05
  -2   1  -2  171.58    4.50
  -2   1  -1  180.40    5.09
  -2   1   0  336.92    6.08
  -2   1   1  334.22   11.64
  -2   1   2  347.24    7.73
  -2   1   3  207.53   21.87
  -2   1   4  266.00   19.08
  -2   1   6  163.68   14.86
  -2   1   7  149.59   13.08
  -2   1   8   98.24   13.33
  -2   1   9   98.25   13.04
  -2   1  10   43.90   11.71
  -2   1  11   83.64   13.82
  -2   1  12   83.63   16.94
  -2   1  13   33.58   14.06
  -2   2 -12   11.58   12.48
  -2   2 -11    3.60   10.72
  -2   2 -10   22.06   10.20
  -2   2  -9  166.49   11.85
  -2   2  -8   34.75    9.15
  -2   2  -7   11.52   10.44
  -2   2  -6   20.46    9.22
  -2   2  -5  129.73   13.10
  -2   2  -4  201.21    4.64
  -2   2  -3   49.29    3.60
  -2   2  -2   42.27    3.87
  -2   2  -1   19.40    3.24
  -2   2   0   18.76    4.79
  -2   2   1   87.88    7.24
  -2   2   2  190.98    5.49
  -2   2   3  144.35    5.60
  -2   2   4  111.86    3.10
  -2   2   5  165.00   13.28
  -2   2   6  178.53   13.01
  -2   2   7  139.73   14.87
  -2   2   8   42.58   12.63
  -2   2   9   24.20   14.69
  -2   2  10   36.29   14.26
  -2   2  11   62.56   17.32
  -2   2  12   83.76   18.69
  -2   3 -12   27.20   17.39
  -2   3 -11   55.49   17.72
  -2   3 -10  133.31   17.87
  -2   3  -9  294.37   20.80
  -2   3  -8    5.66   11.78
  -2   3  -7   72.67   12.46
  -2   3  -6   83.01   11.42
  -2   3  -5  222.50   11.07
  -2   3  -4  308.09   11.15
  -2   3  -3  177.56    6.68
  -2   3  -2  188.54    6.16
  -2   3  -1  170.27    7.51
  -2   3   0   74.26    7.38
  -2   3   1  129.61    8.40
  -2   3   2  188.20    5.09
  -2   3   3  178.73    6.07
  -2   3   4  166.13    6.62
  -2   3   5  310.39    6.79
  -2   3   6  255.85   11.69
  -2   3   7  244.10   17.97
  -2   3   8   87.93   10.70
  -2   3   9   77.83    9.68
  -2   3  10   41.64   10.53
  -2   3  11  112.20   12.81
  -2   3  12   81.44   12.91
  -2   4 -11   31.29   16.89
  -2   4 -10   44.05   15.80
  -2   4  -9  127.87   17.59
  -2   4  -8   12.42   12.90
  -2   4  -7   38.50   11.83
  -2   4  -6   51.87   10.77
  -2   4  -5  189.30   14.20
  -2   4  -4  243.94    8.50
  -2   4  -3  109.49    6.35
  -2   4  -2  124.93    7.83
  -2   4  -1   95.11    7.88
  -2   4   0  128.29    7.64
  -2   4   1  167.24    5.27
  -2   4   2  225.25    6.16
  -2   4   3  204.75    6.67
  -2   4   4  174.37    6.17
  -2   4   5  138.59    6.50
  -2   4   6  106.14    9.53
  -2   4   7  113.70   10.67
  -2   4   8   54.14   11.04
  -2   4   9   67.32   11.29
  -2   4  10   31.17   10.41
  -2   4  11  115.13   13.86
  -2   4  12   65.72   13.47
  -2   5 -11    7.05   16.50
  -2   5 -10   28.78   14.95
  -2   5  -9   83.44   15.82
  -2   5  -8    9.20   12.49
  -2   5  -7   15.65   10.74
  -2   5  -6   16.48   10.25
  -2   5  -5    8.86    7.00
  -2   5  -4   39.35   12.96
  -2   5  -3   78.74    8.76
  -2   5  -2    6.97    6.74
  -2   5  -1   37.37    6.81
  -2   5   0   30.98    6.76
  -2   5   1   28.15    6.91
  -2   5   2   45.33    4.77
  -2   5   3   13.31    7.45
  -2   5   4    1.06    8.40
  -2   5   5  217.64   11.42
  -2   5   6   85.48   10.32
  -2   5   7   79.31   11.09
  -2   5   8    9.51    9.55
  -2   5   9   10.15    9.76
  -2   5  10    8.89   11.27
  -2   5  11   39.94   12.60
  -2   6  -5   96.35   16.92
  -2   6  -4  187.43   18.23
  -2   6  -3  128.69    9.96
  -2   6  -2   93.84    8.42
  -2   6  -1   83.10    9.44
  -2   6   0  115.86   12.63
  -2   6   1   82.50    9.13
  -2   6   2  109.94    9.20
  -2   6   3   77.01    9.11
  -2   6   4   75.54   18.60
  -2   6   5  128.63   10.84
  -2   6   6   86.13   11.04
  -2   6   7   85.81   11.33
  -2   6   8   49.85   10.92
  -2   6   9   56.25   12.17
  -2   6  10   33.96   12.47
  -2   7  -4   51.68   16.63
  -2   7  -3   67.57   17.37
  -2   7  -2   26.67   15.83
  -2   7  -1   30.78    7.80
  -2   7   0   71.15    9.09
  -2   7   1   61.65    8.89
  -2   7   2   59.69    9.13
  -2   7   3   38.18    9.17
  -2   7   4   27.60    9.28
  -2   7   5   98.14   11.06
  -2   7   6   40.73   10.33
  -2   7   7   23.61   10.80
  -2   7   8   32.63   12.72
  -2   7   9   34.71   12.04
  -2   7  10   28.37   19.39
  -2   8  -4   19.91   16.83
  -2   8  -3    1.46   16.39
  -2   8  -2   14.27   15.79
  -2   8  -1   18.62   16.33
  -2   8   0   34.99   18.13
  -2   8   1   19.42   17.04
  -2   8   2    8.13   16.97
  -2   8   3    1.22   16.43
  -2   8   4    2.03   17.07
  -2   8   5   39.71   18.74
  -2   8   6   11.00   17.44
  -2   8   7    2.59   17.87
  -1  -9  -4   91.64   21.32
  -1  -9  -3    7.38   18.29
  -1  -9  -2    9.81   18.01
  -1  -9  -1   13.11   17.22
  -1  -9   0   15.83   16.28
  -1  -9   1    8.59   16.54
  -1  -9   2   28.78   19.17
  -1  -9   3   14.05   16.62
  -1  -9   4   38.20   18.76
  -1  -8  -7    4.12   18.27
  -1  -8  -6   11.65   16.75
  -1  -8  -5   18.75   16.85
  -1  -8  -4   18.72   16.41
  -1  -8  -3    3.31   14.61
  -1  -8  -2    4.63   15.17
  -1  -8  -1    4.47   14.92
  -1  -8   0   12.44   14.73
  -1  -8   1    1.75   15.04
  -1  -8   2   20.36   11.07
  -1  -8   3    6.44   10.71
  -1  -8   4   29.25   12.27
  -1  -8   5   37.83   12.71
  -1  -8   6   48.56   16.87
  -1  -8   7    6.63   17.04
  -1  -7  -9   77.62   21.58
  -1  -7  -8   15.32   15.61
  -1  -7  -7   14.23   15.93
  -1  -7  -6   58.39   18.15
  -1  -7  -5   65.87   15.88
  -1  -7  -4  110.40   17.95
  -1  -7  -3    9.14   14.04
  -1  -7  -2   48.50   14.14
  -1  -7  -1   32.89   14.57
  -1  -7   0   65.67   13.42
  -1  -7   1   24.14    9.63
  -1  -7   2   42.93   15.27
  -1  -7   3   11.70    9.71
  -1  -7   4   36.63   14.68
  -1  -7   5   81.70   19.22
  -1  -7   6   68.90   12.16
  -1  -7   7   17.54   11.63
  -1  -7   8   14.71   16.06
  -1  -6 -10   82.27   26.36
  -1  -6  -9   75.41   13.42
  -1  -6  -8    0.70   16.10
  -1  -6  -7   21.41   14.60
  -1  -6  -6   87.62   11.36
  -1  -6  -5  166.36   18.59
  -1  -6  -4  260.26   17.58
  -1  -6  -3   25.25   12.68
  -1  -6  -2   44.54   13.40
  -1  -6  -1   56.95   12.99
  -1  -6   0  107.04   15.00
  -1  -6   1   70.32    9.65
  -1  -6   2   77.80    9.83
  -1  -6   3   46.26   12.28
  -1  -6   4  112.25   10.40
  -1  -6   5  128.76   12.23
  -1  -6   6   93.20   11.09
  -1  -6   7   22.74   10.57
  -1  -6   8   22.07   11.61
  -1  -6   9   39.54   12.21
  -1  -6  10   29.44   16.85
  -1  -5 -11   20.98   13.81
  -1  -5 -10   83.45   13.72
  -1  -5  -9  145.98   26.16
  -1  -5  -8    3.27    9.96
  -1  -5  -7    9.25   12.75
  -1  -5  -6   29.25   13.17
  -1  -5  -5   39.81   12.59
  -1  -5  -4   57.31   13.49
  -1  -5  -3   27.23    6.82
  -1  -5  -2   13.97    5.30
  -1  -5  -1   48.26   11.62
  -1  -5   0  110.26    9.02
  -1  -5   1   34.72    7.51
  -1  -5   2   11.50    7.23
  -1  -5   3   14.59    7.38
  -1  -5   4   30.08    3.49
  -1  -5   5  117.96    6.79
  -1  -5   6   97.85    9.66
  -1  -5   7   26.10    9.36
  -1  -5   8   10.24   10.03
  -1  -5   9   18.27   10.17
  -1  -5  10    3.53   10.79
  -1  -5  11   30.87   17.96
  -1  -4 -12   74.73   21.86
  -1  -4 -11   60.28   13.88
  -1  -4 -10   98.66   14.06
  -1  -4  -9  163.98   12.82
  -1  -4  -8    3.27    9.73
  -1  -4  -7   34.98   13.41
  -1  -4  -6  129.76   14.75
  -1  -4  -5  354.59   20.39
  -1  -4  -4  447.87   17.15
  -1  -4  -3   41.74    6.79
  -1  -4  -2  116.41    6.41
  -1  -4  -1   80.34    4.11
  -1  -4   0   86.41    7.33
  -1  -4   1   46.90    7.48
  -1  -4   2   57.01    5.65
  -1  -4   3   62.20   10.13
  -1  -4   4  202.18    8.01
  -1  -4   5  183.56    7.51
  -1  -4   6  123.79    8.56
  -1  -4   7   44.60    7.95
  -1  -4   8   26.81    8.52
  -1  -4   9   47.35   11.43
  -1  -4  10   12.93    9.97
  -1  -4  11   49.12   11.68
  -1  -4  12   51.76   13.19
  -1  -3 -12   38.54   22.31
  -1  -3 -11  129.15   14.10
  -1  -3 -10  181.52   13.77
  -1  -3  -9  356.31   15.65
  -1  -3  -8   13.86    9.77
  -1  -3  -7  127.85   34.55
  -1  -3  -6  208.67   15.66
  -1  -3  -5  397.46   16.20
  -1  -3  -4  389.72   44.38
  -1  -3  -3  110.94    6.27
  -1  -3  -2  186.84    5.62
  -1  -3  -1  294.28    5.58
  -1  -3   0  413.51   16.85
  -1  -3   1  244.46    8.42
  -1  -3   2  118.85    5.48
  -1  -3   3   93.25    3.03
  -1  -3   4  137.65    6.00
  -1  -3   5  330.95    8.21
  -1  -3   6  239.17    7.00
  -1  -3   7  166.54    9.89
  -1  -3   8   53.72   12.94
  -1  -3   9   72.91   12.73
  -1  -3  10   37.13   15.15
  -1  -3  11  136.59   18.31
  -1  -3  12   87.30   18.19
  -1  -3  13   50.63   19.68
  -1  -2 -12    1.46   12.07
  -1  -2 -11   84.70   25.21
  -1  -2 -10  157.78   13.43
  -1  -2  -9  312.05   10.63
  -1  -2  -8   11.22    8.58
  -1  -2  -7   77.37    9.38
  -1  -2  -6   82.20    8.12
  -1  -2  -5  185.37   18.75
  -1  -2  -4  177.31    4.95
  -1  -2  -3   31.27    3.46
  -1  -2  -2  145.29    5.06
  -1  -2  -1  184.56   11.47
  -1  -2   0  166.34    4.56
  -1  -2   1   70.18    5.82
  -1  -2   2   10.17    2.76
  -1  -2   3   24.07    4.31
  -1  -2   4   45.43    4.08
  -1  -2   5  262.52    6.90
  -1  -2   6  149.35    7.25
  -1  -2   7  129.17    6.39
  -1  -2   8   16.80   10.94
  -1  -2   9   53.51   13.44
  -1  -2  10   40.71   15.07
  -1  -2  11   79.47   16.58
  -1  -2  12   48.65   18.26
  -1  -2  13   21.73   16.29
  -1  -1 -12   51.50   14.24
  -1  -1 -11  123.56   12.77
  -1  -1 -10  101.06   10.73
  -1  -1  -9  153.19   11.77
  -1  -1  -8  100.02    7.30
  -1  -1  -7   61.24    6.27
  -1  -1  -6  206.66    9.14
  -1  -1  -5  611.53    8.19
  -1  -1  -4  692.64   17.22
  -1  -1  -3  239.53   11.35
  -1  -1  -2  389.16    9.53
  -1  -1  -1  172.71    2.90
  -1  -1   0  180.02    4.45
  -1  -1   1   84.84    3.16
  -1  -1   2   77.65    3.52
  -1  -1   3  389.78   19.81
  -1  -1   4  428.50   12.00
  -1  -1   5  390.72   32.49
  -1  -1   6  160.89    6.25
  -1  -1   7  125.30    6.29
  -1  -1   8    3.95    4.91
  -1  -1   9   21.62    8.40
  -1  -1  10   27.35   15.76
  -1  -1  11   77.13   17.01
  -1  -1  12   57.63   17.45
  -1  -1  13   53.98   18.05
  -1   1 -12   44.84   11.31
  -1   1 -11  147.47   12.44
  -1   1 -10  121.85   30.61
  -1   1  -9  215.56   17.80
  -1   1  -8   57.88   15.50
  -1   1  -7   83.10    7.66
  -1   1  -6  216.75   42.03
  -1   1  -5  424.96   19.50
  -1   1  -4  612.58   23.23
  -1   1  -3  497.63    8.13
  -1   1  -2  469.72    5.73
  -1   1  -1  348.76    3.37
  -1   1   0  830.69   10.24
  -1   1   1   21.15    4.56
  -1   1   2  102.77    4.41
  -1   1   3  478.19    7.69
  -1   1   4  329.13    7.50
  -1   1   5  621.67   19.83
  -1   1   6  174.76   12.70
  -1   1   7  118.53   12.99
  -1   1   8   13.95   10.83
  -1   1   9   62.66   14.60
  -1   1  10    9.33   14.03
  -1   1  11   28.87   11.80
  -1   1  12    2.35   17.75
  -1   1  13   61.67   17.07
  -1   2 -12   42.58   12.20
  -1   2 -11  110.69   13.23
  -1   2 -10  122.92   11.19
  -1   2  -9  126.20   12.83
  -1   2  -8  136.30   11.23
  -1   2  -7   55.03    8.76
  -1   2  -6   71.10    7.81
  -1   2  -5  115.73   11.38
  -1   2  -4  240.91   13.05
  -1   2  -3  180.70    6.94
  -1   2  -2  146.93    4.77
  -1   2  -1  231.44   13.93
  -1   2   0 1177.65   46.68
  -1   2   1  214.67    6.93
  -1   2   2  127.48    4.96
  -1   2   3  121.77    5.65
  -1   2   4   22.41    4.08
  -1   2   5  382.28   25.00
  -1   2   6   79.92   12.19
  -1   2   7   43.65   11.13
  -1   2   8   48.07   13.38
  -1   2   9   64.48   13.46
  -1   2  10   30.55   15.95
  -1   2  11   14.23   14.00
  -1   2  12   13.79   10.47
  -1   3 -12   31.08   11.91
  -1   3 -11  100.29   13.12
  -1   3 -10  199.52   14.53
  -1   3  -9  244.13   13.49
  -1   3  -8  207.91   16.11
  -1   3  -7  137.03   13.67
  -1   3  -6  144.28   12.53
  -1   3  -5  198.08   13.43
  -1   3  -4  341.85   12.47
  -1   3  -3  280.02    7.14
  -1   3  -2  195.49    5.75
  -1   3  -1  292.90    6.29
  -1   3   0 1879.64   13.15
  -1   3   1  504.85   29.36
  -1   3   2  219.37    4.58
  -1   3   3   27.34    3.89
  -1   3   4   79.49    4.80
  -1   3   5  620.16   22.66
  -1   3   6  255.29   10.24
  -1   3   7  142.03   10.05
  -1   3   8  102.64    8.74
  -1   3   9  104.34   11.64
  -1   3  10   75.81    9.76
  -1   3  11   63.84   11.84
  -1   3  12   41.29   17.83
  -1   4 -12   56.87   19.32
  -1   4 -11   64.64   17.72
  -1   4 -10   67.73   15.62
  -1   4  -9   55.76   14.21
  -1   4  -8   48.16   13.91
  -1   4  -7   26.12   10.99
  -1   4  -6   71.83   11.32
  -1   4  -5  232.48   13.41
  -1   4  -4  382.78   12.89
  -1   4  -3  299.50    7.80
  -1   4  -2  107.01    5.60
  -1   4  -1   85.77    6.88
  -1   4   0  569.68    9.67
  -1   4   1   26.54    4.04
  -1   4   2   36.60    5.12
  -1   4   3   63.05    6.70
  -1   4   4  124.69   13.63
  -1   4   5  389.35   11.90
  -1   4   6  105.28    8.89
  -1   4   7   16.20    7.57
  -1   4   8   32.73    9.19
  -1   4   9    9.54    8.56
  -1   4  10   10.74   10.23
  -1   4  11   18.95   10.30
  -1   4  12    3.76   16.86
  -1   5 -11   12.27   17.08
  -1   5 -10   83.49   18.00
  -1   5  -9  122.20   17.24
  -1   5  -8  113.81   14.86
  -1   5  -7   32.67   12.38
  -1   5  -6   19.16   10.28
  -1   5  -5   90.78   10.84
  -1   5  -4   53.85    7.62
  -1   5  -3   31.80    7.38
  -1   5  -2   28.84    5.35
  -1   5  -1   67.17    5.93
  -1   5   0  725.10   17.18
  -1   5   1   98.96    7.77
  -1   5   2   35.99    5.30
  -1   5   3    0.58    5.93
  -1   5   4    8.73    6.84
  -1   5   5   83.91    8.78
  -1   5   6   28.51    7.72
  -1   5   7   34.29   12.28
  -1   5   8   94.47    9.56
  -1   5   9   32.78   10.44
  -1   5  10   21.86   10.29
  -1   5  11   23.84   17.13
  -1   6  -5  224.37   15.69
  -1   6  -4  180.28   11.52
  -1   6  -3  104.87    9.80
  -1   6  -2   59.93    6.36
  -1   6  -1   37.64    5.78
  -1   6   0  383.89   11.91
  -1   6   1   30.20    5.28
  -1   6   2   32.19    7.28
  -1   6   3   29.32    7.34
  -1   6   4  129.45    9.66
  -1   6   5  229.08   13.38
  -1   6   6   93.40   10.54
  -1   6   7   46.26    9.54
  -1   6   8   78.08   11.92
  -1   6   9   20.33   10.44
  -1   6  10   30.48   16.17
  -1   7  -4   90.10   15.40
  -1   7  -3   65.02   10.69
  -1   7  -2   27.28   10.27
  -1   7  -1   32.02   10.87
  -1   7   0  238.23   12.31
  -1   7   1   34.63   11.56
  -1   7   2   30.06    7.29
  -1   7   3   28.86    7.89
  -1   7   4   33.63    8.16
  -1   7   5   50.29    9.95
  -1   7   6   45.43    9.80
  -1   7   7   25.33    9.89
  -1   7   8   91.40   12.11
  -1   7   9   11.18   16.58
  -1   8  -3   11.36   16.04
  -1   8  -2   10.90   16.89
  -1   8  -1   28.79   16.92
  -1   8   0  208.99   24.42
  -1   8   1   52.76   16.82
  -1   8   2   15.03   15.30
  -1   8   3   10.40   15.83
  -1   8   4    7.79   15.70
  -1   8   5    6.10   16.20
  -1   8   6   34.12   17.22
  -1   8   7   21.39   18.81
   0  -9   2   10.99   16.81
   0  -8  -5   19.35   16.08
   0  -8  -4   15.23   14.40
   0  -8  -3   18.19   14.08
   0  -8  -2   41.00   14.61
   0  -8  -1   70.64   15.54
   0  -8   0   95.67   14.69
   0  -8   1   53.88   10.80
   0  -8   2    0.87    9.88
   0  -8   3    4.69   10.39
   0  -8   4    5.32   14.53
   0  -8   5   10.73   10.84
   0  -8   6   21.30   15.71
   0  -8   7   11.61   15.62
   0  -8   8   15.24   17.09
   0  -7 -10   77.71   20.38
   0  -7  -9   94.95   13.76
   0  -7  -8   44.30   12.06
   0  -7  -7   56.19   14.88
   0  -7  -6   69.86   15.68
   0  -7  -5   53.21   15.11
   0  -7  -4   54.23   13.88
   0  -7  -3   49.13   14.93
   0  -7  -2   62.94   12.53
   0  -7  -1  121.10   14.01
   0  -7   0  106.40   10.45
   0  -7   1   54.57    9.83
   0  -7   2    8.46    8.28
   0  -7   3   38.48   11.03
   0  -7   4   45.59   10.23
   0  -7   5  110.81   12.24
   0  -7   6   52.15   10.28
   0  -7   7   27.59   11.01
   0  -7   8    8.42   10.78
   0  -7   9   27.44   17.18
   0  -6 -11   70.12   19.84
   0  -6 -10   44.51   11.94
   0  -6  -9   58.57   13.19
   0  -6  -8   87.28   12.02
   0  -6  -7   91.48   16.41
   0  -6  -6  148.30   15.83
   0  -6  -5  177.90   15.79
   0  -6  -4  142.94   15.62
   0  -6  -3  115.90   13.20
   0  -6  -2  101.78   12.73
   0  -6  -1  148.26   14.08
   0  -6   0  210.89   12.25
   0  -6   1   91.66    9.15
   0  -6   2   15.58    7.86
   0  -6   3   54.22    8.51
   0  -6   4   65.25    9.19
   0  -6   5  201.21   11.83
   0  -6   6   49.51   12.94
   0  -6   7   43.84    9.97
   0  -6   8   11.17   10.06
   0  -6   9   37.11   11.34
   0  -6  10   13.00   15.46
   0  -5 -11  100.54   43.33
   0  -5 -10   96.75   12.81
   0  -5  -9  150.26   12.17
   0  -5  -8  202.93   13.10
   0  -5  -7  122.82   15.65
   0  -5  -6   68.51   12.70
   0  -5  -5   53.57    8.61
   0  -5  -4   15.63   10.69
   0  -5  -3   73.27   12.14
   0  -5  -2  112.68    7.05
   0  -5  -1  268.42    6.87
   0  -5   0  527.27   15.90
   0  -5   1  205.96   18.08
   0  -5   2   33.81    2.89
   0  -5   3    5.48    3.33
   0  -5   4    1.00    4.40
   0  -5   5  158.12   10.46
   0  -5   6   27.96    6.27
   0  -5   7   63.26    7.79
   0  -5   8   43.07    9.21
   0  -5   9  105.01   23.57
   0  -5  10   27.20   17.34
   0  -5  11   28.74   18.96
   0  -4 -12   60.57   15.39
   0  -4 -11   80.17   13.37
   0  -4 -10   30.69    8.45
   0  -4  -9   36.47   11.15
   0  -4  -8  164.97   28.88
   0  -4  -7   64.68   12.96
   0  -4  -6  150.88   13.70
   0  -4  -5  192.58   13.72
   0  -4  -4  187.57   14.70
   0  -4  -3  147.91    6.95
   0  -4  -2   87.92    6.10
   0  -4  -1   69.98    7.68
   0  -4   0  367.79   13.26
   0  -4   1   28.94    4.39
   0  -4   2   34.56    3.19
   0  -4   3   49.15    3.48
   0  -4   4  107.62    5.38
   0  -4   5  512.81   37.38
   0  -4   6   96.36    9.32
   0  -4   7   31.65   10.41
   0  -4   8    1.90   11.57
   0  -4   9   30.57   12.73
   0  -4  10   29.33   14.94
   0  -4  11   33.76   16.00
   0  -4  12   31.80   18.25
   0  -4  13   64.69   20.27
   0  -3 -12   92.10   14.35
   0  -3 -11  164.29   19.28
   0  -3 -10  146.47    9.38
   0  -3  -9  178.01    9.94
   0  -3  -8  416.59   12.85
   0  -3  -7  263.74   17.01
   0  -3  -6  328.17   16.88
   0  -3  -5  377.89   16.89
   0  -3  -4  343.52   12.94
   0  -3  -3  317.09   10.38
   0  -3  -2  426.89   13.15
   0  -3  -1  835.93   13.76
   0  -3   0 3214.87   29.14
   0  -3   1  797.71   19.89
   0  -3   2  273.76    6.91
   0  -3   3   32.98    2.99
   0  -3   4   66.33    4.17
   0  -3   5  629.96   27.18
   0  -3   6  152.45    5.80
   0  -3   7  165.69   15.13
   0  -3   8  106.31   13.18
   0  -3   9  228.20   20.77
   0  -3  10  116.13   16.43
   0  -3  11   52.30   17.31
   0  -3  12   28.62   18.56
   0  -3  13   39.74   18.85
   0  -2 -13   21.68   15.22
   0  -2 -12   17.18   12.79
   0  -2 -11   47.26   12.18
   0  -2 -10   75.04   11.61
   0  -2  -9   96.46    6.91
   0  -2  -8  368.22   34.25
   0  -2  -7   94.25    7.75
   0  -2  -6   84.22   11.63
   0  -2  -5  172.85   12.44
   0  -2  -4  117.74    7.87
   0  -2  -3   54.95    4.17
   0  -2  -2  146.94    4.91
   0  -2  -1  233.17    4.80
   0  -2   0 3281.40   37.24
   0  -2   1  213.30    2.48
   0  -2   2   71.77    5.06
   0  -2   3    1.02    2.76
   0  -2   4   57.71    4.53
   0  -2   5  618.52    8.12
   0  -2   6   74.45    6.44
   0  -2   7   52.20   11.19
   0  -2   8   67.66   15.71
   0  -2   9  105.71   13.04
   0  -2  10   62.05   17.52
   0  -2  11   16.10   14.23
   0  -2  12   26.32   18.03
   0  -2  13   45.50   18.96
   0  -1 -13   79.14   15.28
   0  -1 -12   41.23   11.68
   0  -1 -11   41.48   10.75
   0  -1 -10   22.95   10.91
   0  -1  -9   56.14    9.47
   0  -1  -8   85.97    4.25
   0  -1  -7   40.02    4.17
   0  -1  -6  136.45    4.89
   0  -1  -5  794.30   18.76
   0  -1  -4  535.03    8.13
   0  -1  -3  178.54    5.66
   0  -1  -2   47.78    4.21
   0  -1  -1  237.82    2.86
   0  -1   0 2506.60   13.87
   0  -1   1   31.71    2.98
   0  -1   2    3.99    3.20
   0  -1   3   16.35    3.78
   0  -1   4  259.57   16.27
   0  -1   5  880.25   21.07
   0  -1   6   73.01    9.39
   0  -1   7   36.86   11.75
   0  -1   8   17.44   11.78
   0  -1   9   54.30   16.36
   0  -1  10   56.66   13.04
   0  -1  11   45.09   15.84
   0  -1  12   28.52   14.18
   0  -1  13   18.77   10.76
   0   1 -13   62.76   11.88
   0   1 -12   12.53    7.35
   0   1 -11    8.96   13.83
   0   1 -10   38.74    8.16
   0   1  -9   52.00   11.08
   0   1  -8   68.15    6.12
   0   1  -7   19.60    5.64
   0   1  -6   89.98    3.17
   0   1  -5  897.18   57.80
   0   1  -4  252.11   13.43
   0   1  -3   14.16    2.87
   0   1  -2    3.63    2.87
   0   1  -1   28.76    6.69
   0   1   0 2445.06   10.08
   0   1   1  216.13    2.76
   0   1   2   63.76    3.76
   0   1   3  189.02    5.66
   0   1   4  515.45   14.63
   0   1   5  558.01   17.71
   0   1   6  115.60   12.14
   0   1   7   30.92   10.40
   0   1   8   68.28   12.85
   0   1   9    7.32    4.60
   0   1  10   43.65   14.80
   0   1  11   47.18   15.61
   0   1  12   38.13   16.25
   0   1  13   70.77   17.89
   0   2 -12    8.66   11.14
   0   2 -11   27.41   10.49
   0   2 -10   53.99   11.71
   0   2  -9   92.13    9.34
   0   2  -8   65.47   16.66
   0   2  -7   64.04    3.18
   0   2  -6   95.45    5.70
   0   2  -5  623.79    8.48
   0   2  -4   64.92    4.01
   0   2  -3    3.04    3.60
   0   2  -2   75.74    9.42
   0   2  -1  212.65    3.38
   0   2   0 3286.40   45.34
   0   2   1  272.78   10.73
   0   2   2  147.73    4.86
   0   2   3   67.82    4.26
   0   2   4   95.29    6.03
   0   2   5  152.17    7.36
   0   2   6   89.40    7.10
   0   2   7  101.22    7.64
   0   2   8  290.90   15.97
   0   2   9  109.55    9.19
   0   2  10   78.43    9.74
   0   2  11   66.94   16.45
   0   2  12    5.77   18.13
   0   3 -12   14.67   11.95
   0   3 -11   76.59   12.84
   0   3 -10  112.38   10.91
   0   3  -9  191.96   14.05
   0   3  -8  110.15    9.67
   0   3  -7  163.21   11.66
   0   3  -6  166.79    5.88
   0   3  -5  618.94   19.38
   0   3  -4   69.05    6.12
   0   3  -3   32.32    7.62
   0   3  -2  275.80    8.22
   0   3  -1  812.59   19.61
   0   3   0 3284.15   33.86
   0   3   1  845.55   23.22
   0   3   2  451.14    9.15
   0   3   3  304.35    8.37
   0   3   4  313.77    6.96
   0   3   5  345.74    8.94
   0   3   6  297.83   10.58
   0   3   7  250.58   10.51
   0   3   8  398.06   12.39
   0   3   9  169.61   11.05
   0   3  10  153.78   11.47
   0   3  11  115.64   18.99
   0   3  12  104.60   20.24
   0   4 -12   10.30   16.94
   0   4 -11   26.26   15.99
   0   4 -10   21.16   15.54
   0   4  -9   22.72   13.32
   0   4  -8    2.44   12.56
   0   4  -7   49.32    6.50
   0   4  -6   97.32    7.96
   0   4  -5  542.20   12.01
   0   4  -4  106.52   10.48
   0   4  -3   73.62    9.90
   0   4  -2   40.37    7.36
   0   4  -1   57.44    3.64
   0   4   0  349.71    8.30
   0   4   1   93.25    7.77
   0   4   2  102.76    5.53
   0   4   3  141.26    5.65
   0   4   4  167.79    7.60
   0   4   5  207.72    7.59
   0   4   6  149.48    7.46
   0   4   7   79.20    8.58
   0   4   8  120.30   10.25
   0   4   9   37.83    9.26
   0   4  10   34.79   15.17
   0   4  11   56.49   18.19
   0   4  12   21.70   19.28
   0   5 -11   27.49   17.89
   0   5 -10   35.68   15.51
   0   5  -9   90.35   17.16
   0   5  -8   26.15   13.25
   0   5  -7   63.00   10.34
   0   5  -6   33.65    8.89
   0   5  -5  159.16   13.55
   0   5  -4    8.25    9.06
   0   5  -3    1.67    9.72
   0   5  -2   47.26    7.79
   0   5  -1  218.67   10.19
   0   5   0  568.86    8.81
   0   5   1  294.93   11.24
   0   5   2  115.67    6.44
   0   5   3   53.15    6.48
   0   5   4   14.14    7.31
   0   5   5   39.65    6.19
   0   5   6   70.88    7.15
   0   5   7   93.39    9.33
   0   5   8  167.07   13.31
   0   5   9  127.17   16.70
   0   5  10   83.83   18.22
   0   5  11   67.02   18.75
   0   6  -6   67.71   13.05
   0   6  -5  222.04   15.95
   0   6  -4   91.27   13.43
   0   6  -3   58.66   12.61
   0   6  -2   21.69    8.75
   0   6  -1   75.44   10.33
   0   6   0  192.91    9.89
   0   6   1  167.55    7.21
   0   6   2  105.97    6.58
   0   6   3  105.77    6.47
   0   6   4  128.42    8.17
   0   6   5  190.33    9.10
   0   6   6  146.16   12.11
   0   6   7   85.49   10.01
   0   6   8   57.90    9.86
   0   6   9   62.11   16.34
   0   6  10   57.08   16.21
   0   6  11   92.50   20.00
   0   7  -6   58.94   13.29
   0   7  -5  145.16   17.69
   0   7  -4   66.38   14.51
   0   7  -3   42.66   14.53
   0   7  -2    8.14    9.88
   0   7  -1   50.09   10.90
   0   7   0  126.15   12.62
   0   7   1  124.05   11.97
   0   7   2   86.10   11.22
   0   7   3   46.76   11.45
   0   7   4   44.75   10.95
   0   7   5   64.54   11.58
   0   7   6   59.50   15.42
   0   7   7   54.03   10.14
   0   7   8   39.75   13.94
   0   7   9  100.95   17.15
   0   7  10   52.43   18.96
   0   8  -5   32.80   15.12
   0   8  -4    0.71   14.93
   0   8  -3    0.55   14.71
   0   8  -2    0.87   14.82
   0   8  -1   52.30   15.97
   0   8   0   98.02   18.05
   0   8   1   93.59   13.58
   0   8   2   44.19   12.14
   0   8   3   14.31   10.92
   0   8   4   16.77   11.55
   0   8   5   20.93   16.17
   0   8   6   32.42   16.45
   0   9  -4   43.83   18.78
   0   9  -3   19.69   17.14
   0   9  -2    8.02   17.33
   0   9  -1   19.48   17.63
   0   9   0   25.25   14.62
   0   9   1   22.43   18.29
   0   9   2   28.48   19.54
   0   9   3    8.68   19.57
   0   9   4   71.10   21.74
   0   9   5   65.43   20.04
   1  -9  -1   16.37   19.34
   1  -9   0   52.07   19.79
   1  -9   1   22.66   14.59
   1  -9   2   25.19   11.66
   1  -9   3   51.16   19.52
   1  -8  -6   27.49   19.93
   1  -8  -5    6.10   18.21
   1  -8  -4    1.10   16.94
   1  -8  -3   10.60   16.98
   1  -8  -2   30.64   17.69
   1  -8   0  180.42   19.06
   1  -8   1   36.94   12.59
   1  -8   2   10.09   12.98
   1  -8   3    1.42   10.32
   1  -8   4    1.47   10.81
   1  -8   5   31.78   17.07
   1  -7  -9   21.06   18.74
   1  -7  -8  106.96   19.76
   1  -7  -7    7.48   16.69
   1  -7  -6   30.23   16.30
   1  -7  -5   53.63   18.19
   1  -7  -4   53.05   11.87
   1  -7  -3   36.61   12.18
   1  -7  -2   35.94   10.62
   1  -7  -1   35.24    8.58
   1  -7   0  265.25   19.13
   1  -7   1   35.35   16.47
   1  -7   2   48.83    8.58
   1  -7   3   59.09    8.95
   1  -7   4   75.56    8.18
   1  -7   5  137.39    9.20
   1  -7   6   20.37    9.70
   1  -7   7   18.84   10.58
   1  -7   8   34.40   13.19
   1  -6 -11   33.92   17.99
   1  -6 -10   13.49   11.14
   1  -6  -9    4.80   10.38
   1  -6  -8   83.70   12.96
   1  -6  -7   40.09   11.32
   1  -6  -6  108.09   10.96
   1  -6  -5  246.91   24.12
   1  -6  -4  133.38    9.24
   1  -6  -3   50.78   10.49
   1  -6  -2   42.44   10.48
   1  -6  -1   30.11    6.17
   1  -6   0  361.29   25.61
   1  -6   1   50.72    7.20
   1  -6   2   60.47    8.91
   1  -6   3  119.61    6.47
   1  -6   4  182.39   11.42
   1  -6   5  184.34    7.13
   1  -6   6   45.31    9.46
   1  -6   7   21.94   11.19
   1  -6   8   42.43   10.84
   1  -6   9   59.03   11.77
   1  -6  10   55.65   15.92
   1  -5 -12   13.39   17.65
   1  -5 -11    7.78   16.13
   1  -5 -10   24.39   12.51
   1  -5  -9   42.42   10.77
   1  -5  -8  104.78   10.27
   1  -5  -7   33.16    9.37
   1  -5  -6   37.80    9.19
   1  -5  -5   90.98    9.13
   1  -5  -4    3.91    8.20
   1  -5  -3    2.38    8.39
   1  -5  -2   44.94    7.89
   1  -5  -1   92.39   11.10
   1  -5   0  726.58   11.51
   1  -5   1   67.74   10.36
   1  -5   2   44.71    9.39
   1  -5   3   37.97    5.04
   1  -5   4   51.42    5.60
   1  -5   5   83.03    5.91
   1  -5   6   11.72    5.11
   1  -5   7   25.13   11.78
   1  -5   8  104.04   14.38
   1  -5   9  118.64   17.22
   1  -5  10   71.59   18.14
   1  -5  11   38.73   18.19
   1  -4 -12   44.00   29.59
   1  -4 -11    1.06   14.43
   1  -4 -10    8.51   10.17
   1  -4  -9   15.53    8.57
   1  -4  -8   34.90   11.39
   1  -4  -7   33.92    8.07
   1  -4  -6  111.94    9.33
   1  -4  -5  448.14   30.57
   1  -4  -4  140.69    8.34
   1  -4  -3   85.80    9.08
   1  -4  -2   34.55    8.20
   1  -4  -1   32.95    4.47
   1  -4   0  539.15    8.51
   1  -4   1  101.69    5.03
   1  -4   2  116.11    3.89
   1  -4   3  312.72    7.35
   1  -4   4  398.29   22.40
   1  -4   5  225.66    8.59
   1  -4   6   86.98    6.68
   1  -4   7   26.69   11.88
   1  -4   8   61.55   14.53
   1  -4   9   56.41   15.57
   1  -4  10   89.33   17.05
   1  -4  11   87.04   19.00
   1  -4  12   66.85   19.70
   1  -3 -13   93.88   20.15
   1  -3 -12   38.16   16.95
   1  -3 -11   50.40   15.45
   1  -3 -10   57.71    8.53
   1  -3  -9  116.72   11.09
   1  -3  -8  121.21    8.84
   1  -3  -7  150.08   10.07
   1  -3  -6  237.76   12.49
   1  -3  -5  641.66   14.23
   1  -3  -4   74.31    6.40
   1  -3  -3   32.99    6.03
   1  -3  -2  224.23    6.78
   1  -3  -1  493.74    8.22
   1  -3   0 1860.34   22.42
   1  -3   1  290.69    3.83
   1  -3   2  221.08   11.74
   1  -3   3  292.35    5.92
   1  -3   4  327.76    6.07
   1  -3   5  206.14    5.81
   1  -3   6  147.81    4.05
   1  -3   7  160.40   14.38
   1  -3   8  216.10   16.98
   1  -3   9  294.58   20.58
   1  -3  10  209.12   20.85
   1  -3  11  121.43   20.65
   1  -3  12   36.14   19.06
   1  -2 -13   37.86   14.63
   1  -2 -12    9.74   11.51
   1  -2 -11   38.50   11.41
   1  -2 -10   21.12    6.99
   1  -2  -9   73.15    6.65
   1  -2  -8   17.24    6.80
   1  -2  -7   69.71    7.31
   1  -2  -6   82.01    7.76
   1  -2  -5  354.75    9.35
   1  -2  -4   31.75    5.88
   1  -2  -3  147.69    5.08
   1  -2  -2  134.30    5.71
   1  -2  -1  240.48    4.46
   1  -2   0 1160.77   29.06
   1  -2   1  279.19    8.71
   1  -2   2  171.08    4.42
   1  -2   3  200.57    3.62
   1  -2   4  225.63    8.25
   1  -2   5  100.85   10.55
   1  -2   6   86.49   12.02
   1  -2   7   62.24   13.05
   1  -2   8  103.64   16.22
   1  -2   9  128.68   18.80
   1  -2  10  123.82   17.22
   1  -2  11  113.79   18.59
   1  -2  12   39.56   18.39
   1  -1 -13   58.51   16.66
   1  -1 -12   30.28   11.71
   1  -1 -11   50.40   13.87
   1  -1 -10   46.15   15.55
   1  -1  -9   59.80    6.53
   1  -1  -8   17.38    5.12
   1  -1  -7   99.57    9.77
   1  -1  -6  226.92   12.18
   1  -1  -5  632.51   12.13
   1  -1  -4  359.86   24.07
   1  -1  -3  508.51   24.25
   1  -1  -2  124.63    4.46
   1  -1  -1   14.82    8.06
   1  -1   0  813.22    8.80
   1  -1   1  404.49    3.87
   1  -1   2  557.04   16.95
   1  -1   3  514.12   14.62
   1  -1   4  588.57   35.78
   1  -1   5  436.72   26.61
   1  -1   6  198.07   36.07
   1  -1   7  117.62   12.97
   1  -1   8   82.68   14.25
   1  -1   9  143.98   11.56
   1  -1  10  169.43   20.46
   1  -1  11  187.47   19.46
   1  -1  12   71.04   17.19
   1  -1  13    4.09   18.98
   1   1 -13   51.47   11.55
   1   1 -12   43.43   10.77
   1   1 -11   78.05   11.65
   1   1 -10    2.69   10.76
   1   1  -9   34.22    8.52
   1   1  -8    7.33    7.94
   1   1  -7  133.55    9.06
   1   1  -6  169.39   16.41
   1   1  -5  371.92   37.07
   1   1  -4  472.48   10.62
   1   1  -3  440.64   22.57
   1   1  -2  109.47    4.16
   1   1  -1   65.09    2.42
   1   1   0  167.68    4.33
   1   1   1  216.30    3.77
   1   1   2  427.93   12.65
   1   1   3  235.03    5.66
   1   1   4  745.56   20.46
   1   1   5  641.93    9.65
   1   1   6  164.74   13.38
   1   1   7   63.87   10.90
   1   1   8   57.03   12.29
   1   1   9  177.27   17.46
   1   1  10  118.77   14.99
   1   1  11  103.28   16.11
   1   1  12   33.59   13.27
   1   2 -13   43.48   19.20
   1   2 -12   27.43   11.79
   1   2 -11   70.09   11.70
   1   2 -10    9.50    9.60
   1   2  -9   39.59    9.52
   1   2  -8    9.67    4.93
   1   2  -7  121.89    6.18
   1   2  -6  135.46    9.43
   1   2  -5  229.93    6.81
   1   2  -4   54.51    3.90
   1   2  -3   40.59    4.29
   1   2  -2    8.43    3.76
   1   2  -1   70.37    9.43
   1   2   0  129.69    3.12
   1   2   1  193.48    7.21
   1   2   2  143.35    4.56
   1   2   3   32.92    3.74
   1   2   4  184.67    4.95
   1   2   5  202.56   10.13
   1   2   6   85.21    4.74
   1   2   7   68.85    5.25
   1   2   8   10.55    6.17
   1   2   9  316.50   11.82
   1   2  10  198.21   20.45
   1   2  11   99.36   19.26
   1   2  12   22.04   17.49
   1   3 -12   72.30   12.71
   1   3 -11  113.53   13.03
   1   3 -10   52.82   11.37
   1   3  -9   86.63    9.98
   1   3  -8   70.70    6.78
   1   3  -7  154.55    7.11
   1   3  -6  230.51    7.34
   1   3  -5  301.81    7.08
   1   3  -4  143.10   11.77
   1   3  -3   97.16    8.67
   1   3  -2  129.50   10.76
   1   3  -1  229.64   12.03
   1   3   0  389.88   11.40
   1   3   1  290.45    6.50
   1   3   2  193.23    5.77
   1   3   3   85.42    5.99
   1   3   4  386.03    9.04
   1   3   5  386.80    7.49
   1   3   6  211.29    7.55
   1   3   7  119.38    6.41
   1   3   8    8.24    6.69
   1   3   9  380.99   22.94
   1   3  10  231.85   20.40
   1   3  11  109.54   19.66
   1   3  12   41.74   19.96
   1   4 -12   52.65   18.74
   1   4 -11   55.80   12.02
   1   4 -10    2.03    9.75
   1   4  -9   24.71   10.30
   1   4  -8   11.43    6.58
   1   4  -7   63.56    9.26
   1   4  -6  104.93   10.50
   1   4  -5  192.31   13.27
   1   4  -4  196.57   11.72
   1   4  -3  108.66   11.65
   1   4  -2   76.81   10.58
   1   4  -1   46.92   11.15
   1   4   0   82.43    3.28
   1   4   1   87.56    7.79
   1   4   2  128.56    5.43
   1   4   3   52.40    6.69
   1   4   4  483.99    8.65
   1   4   5  352.95    9.89
   1   4   6  130.25    6.82
   1   4   7   30.86    5.88
   1   4   8    8.55    8.30
   1   4   9  181.28   17.91
   1   4  10   96.97   19.39
   1   4  11   97.77   19.08
   1   4  12   56.69   18.13
   1   5  -7   21.82   10.27
   1   5  -6   95.17   11.67
   1   5  -5   91.73   12.97
   1   5  -4   33.87   11.03
   1   5  -3    8.14   10.30
   1   5  -2   26.14   11.23
   1   5  -1   25.08   10.56
   1   5   0   56.73   24.90
   1   5   1   55.45    4.38
   1   5   2   16.51    7.16
   1   5   3   21.77    5.33
   1   5   4   52.27    6.25
   1   5   5   42.76    6.02
   1   5   6   15.21    6.11
   1   5   7   10.99    6.35
   1   5   8   12.38    9.21
   1   5   9  136.22   17.75
   1   5  10   85.08   17.16
   1   5  11   19.36   17.39
   1   6  -7   51.31   12.88
   1   6  -6   96.70   14.27
   1   6  -5  171.62   17.54
   1   6  -4  116.74   14.41
   1   6  -3   52.67   13.91
   1   6  -2   91.48   14.66
   1   6  -1   56.00   13.86
   1   6   0   96.53   10.70
   1   6   1   51.02    9.31
   1   6   2   73.34    9.87
   1   6   3   36.22    6.05
   1   6   4  273.92   12.27
   1   6   5  190.36   12.86
   1   6   6  100.40    7.87
   1   6   7   25.26    8.94
   1   6   8    0.98    9.12
   1   6   9   71.98   15.65
   1   7  -6   98.81   15.81
   1   7  -5   67.21   14.58
   1   7  -4   35.09   15.56
   1   7  -3    8.45   13.84
   1   7  -2   48.20   14.80
   1   7  -1   36.97   15.11
   1   7   0   54.45   10.20
   1   7   1   28.69   10.88
   1   7   2   47.83   10.62
   1   7   3   17.98   10.48
   1   7   4  107.08   16.83
   1   7   5   59.29   10.51
   1   7   6   60.60   18.02
   1   7   7   36.43   17.51
   1   8  -5   32.76   16.58
   1   8  -4   13.57   15.12
   1   8  -3    2.79   16.60
   1   8  -2   20.87   15.81
   1   8  -1   14.47   16.49
   1   8   0   17.70   17.75
   1   8   1    0.07   10.95
   1   8   2    3.64   11.69
   1   8   3    2.33   11.36
   1   8   4   29.76   13.80
   1   8   5    0.10   18.93
   1   9   3   37.94   19.47
   2  -9   0   50.40   11.40
   2  -9   1   12.18   10.96
   2  -9   2   26.24   11.64
   2  -9   3   74.76   15.95
   2  -8  -5   42.37   19.81
   2  -8  -4    0.20   17.86
   2  -8  -3    0.24   17.71
   2  -8  -2    2.08   16.53
   2  -8  -1    9.63   10.41
   2  -8   0   20.98   10.60
   2  -8   1   21.73   10.67
   2  -8   2    0.82    9.35
   2  -8   3   18.53    9.43
   2  -8   4    3.87   19.58
   2  -8   5    1.33   13.01
   2  -7  -8   16.68   17.71
   2  -7  -7   23.89   17.27
   2  -7  -6   31.58   17.27
   2  -7  -5   92.43   18.37
   2  -7  -4   39.17   17.76
   2  -7  -3   34.40   16.19
   2  -7  -2   88.35   17.15
   2  -7  -1   48.97    9.26
   2  -7   0   57.75    9.45
   2  -7   1   40.19   19.60
   2  -7   2   18.15    9.12
   2  -7   3   46.50    9.56
   2  -7   4   71.83    9.76
   2  -7   5   31.93   12.98
   2  -7   6   41.71   16.00
   2  -7   7   24.16   16.28
   2  -6 -11   61.00   20.37
   2  -6 -10   22.43   18.28
   2  -6  -9   62.67   18.93
   2  -6  -8   52.49   17.30
   2  -6  -7   75.59   17.22
   2  -6  -6   95.25   17.51
   2  -6  -5  136.09   17.75
   2  -6  -4   91.78   16.61
   2  -6  -3   93.57   15.88
   2  -6  -2  101.26    6.59
   2  -6  -1   84.28    6.61
   2  -6   0   92.31    6.28
   2  -6   1   83.19    7.09
   2  -6   2   93.08    6.04
   2  -6   3  117.10    7.56
   2  -6   4  159.96    7.12
   2  -6   5  112.51    6.61
   2  -6   6   75.14    7.47
   2  -6   7   42.22    7.90
   2  -6   8    8.16   16.10
   2  -5 -11   26.70   16.47
   2  -5 -10    9.81   10.54
   2  -5  -9   16.28    9.08
   2  -5  -8   16.12    9.33
   2  -5  -7   62.68    8.83
   2  -5  -6   77.49    8.73
   2  -5  -5  212.33   10.14
   2  -5  -4    5.61    5.99
   2  -5  -3   14.25    5.45
   2  -5  -2   41.55    3.73
   2  -5  -1   20.60    4.13
   2  -5   0   19.64    3.19
   2  -5   1   42.69    3.68
   2  -5   2    7.03    4.42
   2  -5   3   57.56    5.35
   2  -5   4   30.87    4.57
   2  -5   5   10.21    4.68
   2  -5   6    3.35   11.67
   2  -5   7   35.39   13.75
   2  -5   8    1.37   13.70
   2  -5   9  129.87   18.67
   2  -5  10   30.09   17.41
   2  -5  11    9.78   18.30
   2  -4 -13   66.74   19.70
   2  -4 -12   80.68   17.89
   2  -4 -11  120.25   12.21
   2  -4 -10   55.85    9.65
   2  -4  -9   70.42   10.61
   2  -4  -8   47.03    8.51
   2  -4  -7  120.93    9.87
   2  -4  -6  116.86    8.98
   2  -4  -5  139.98    8.74
   2  -4  -4  179.77    8.55
   2  -4  -3  210.75    7.33
   2  -4  -2  192.87    9.07
   2  -4  -1  147.74   12.70
   2  -4   0   84.40    2.84
   2  -4   1   96.47    4.88
   2  -4   2  118.72    4.66
   2  -4   3   99.79   10.24
   2  -4   4  251.07    8.53
   2  -4   5  211.69   18.59
   2  -4   6   62.15    7.13
   2  -4   7   33.96   13.66
   2  -4   8   10.00   13.61
   2  -4   9  131.08   19.85
   2  -4  10   58.29   18.16
   2  -4  11   59.38   18.82
   2  -3 -13   85.51   19.49
   2  -3 -12  117.41   30.46
   2  -3 -11  136.72   17.78
   2  -3 -10   50.11    9.65
   2  -3  -9   71.13    8.60
   2  -3  -8  100.56    9.93
   2  -3  -7  229.56   10.45
   2  -3  -6  256.69   10.26
   2  -3  -5  229.65    8.72
   2  -3  -4  173.29    7.94
   2  -3  -3  172.38    6.13
   2  -3  -2  161.37   11.01
   2  -3  -1  141.05    6.05
   2  -3   0   46.03   17.09
   2  -3   1  179.21    3.89
   2  -3   2  170.29   13.28
   2  -3   3  145.56    5.57
   2  -3   4  310.47   13.32
   2  -3   5  223.86    5.24
   2  -3   6   62.49   11.56
   2  -3   7   83.92   14.30
   2  -3   8   31.24   13.07
   2  -3   9  315.49   23.21
   2  -3  10  122.28   19.29
   2  -3  11   71.72   20.13
   2  -3  12   21.04   19.57
   2  -2 -13   83.13   19.70
   2  -2 -12  106.06   30.03
   2  -2 -11  104.94   12.89
   2  -2 -10   46.99    9.39
   2  -2  -9   44.67    8.59
   2  -2  -8   57.01    7.29
   2  -2  -7  140.84    8.92
   2  -2  -6  157.85    7.95
   2  -2  -5  152.97    7.98
   2  -2  -4  115.66    5.60
   2  -2  -3  151.51   11.56
   2  -2  -2  171.34    8.51
   2  -2  -1   66.82   10.08
   2  -2   0   17.01    5.40
   2  -2   1   11.43    5.45
   2  -2   2   36.13    4.04
   2  -2   3   38.78    3.64
   2  -2   4  203.74    3.65
   2  -2   5  124.96    4.53
   2  -2   6    8.03   11.59
   2  -2   7   12.40   11.29
   2  -2   8   39.94   14.01
   2  -2   9  142.62   18.03
   2  -2  10   47.22   18.02
   2  -2  11   15.55   17.49
   2  -2  12    1.15   18.41
   2  -1 -13   52.24   12.79
   2  -1 -12   76.19   12.56
   2  -1 -11  129.51   12.04
   2  -1 -10   71.92    7.27
   2  -1  -9  106.02    6.84
   2  -1  -8  110.13    8.15
   2  -1  -7  160.31   12.76
   2  -1  -6  150.33   11.01
   2  -1  -5  107.87    5.57
   2  -1  -4  259.78   10.34
   2  -1  -3  205.72   12.21
   2  -1  -2  370.64   63.19
   2  -1  -1  322.40    8.88
   2  -1   0  314.23   20.71
   2  -1   1  180.78    8.00
   2  -1   2  183.64    4.50
   2  -1   3   49.54    3.28
   2  -1   4  707.79   10.19
   2  -1   5  335.16   19.65
   2  -1   6   54.27   12.88
   2  -1   7   23.50    5.87
   2  -1   8   28.45   13.41
   2  -1   9  293.40   22.35
   2  -1  10   87.86   16.25
   2  -1  11   39.71   13.20
   2  -1  12   67.77   20.50
   2   1 -13   64.60   12.09
   2   1 -12   82.26   15.73
   2   1 -11  120.25   19.92
   2   1 -10  111.19   11.01
   2   1  -9   92.64   10.79
   2   1  -8   96.62    5.89
   2   1  -7  137.80    8.20
   2   1  -6  145.25   14.07
   2   1  -5  188.33    5.57
   2   1  -4  233.67    8.14
   2   1  -3  206.62    7.07
   2   1  -2  710.28   22.12
   2   1  -1  428.24    6.54
   2   1   0  508.91    4.45
   2   1   1   87.67    4.72
   2   1   2   95.13    3.54
   2   1   3   68.04    4.89
   2   1   4  628.59   63.79
   2   1   5  263.84   17.54
   2   1   6   52.49    6.12
   2   1   7   19.78    6.42
   2   1   8   19.80   11.73
   2   1   9   85.30   10.89
   2   1  10   30.41   11.49
   2   1  11   31.60   15.03
   2   1  12   37.61   15.51
   2   2 -13   28.69   17.98
   2   2 -12   33.46   11.68
   2   2 -11   56.98   14.70
   2   2 -10   66.80   11.00
   2   2  -9   39.11    6.30
   2   2  -8   34.60    6.48
   2   2  -7   96.23    6.70
   2   2  -6  122.94    6.07
   2   2  -5  124.27    9.03
   2   2  -4   44.55    8.01
   2   2  -3   20.45    3.92
   2   2  -2  334.08   13.72
   2   2  -1   80.81    4.24
   2   2   0  199.67    8.20
   2   2   1    9.32    4.34
   2   2   2   36.21    5.06
   2   2   3   16.01    6.29
   2   2   4  414.49   23.20
   2   2   5   98.86    8.18
   2   2   6   21.58    6.56
   2   2   7   52.86   10.12
   2   2   8   63.56    7.69
   2   2   9   70.64   15.25
   2   2  10   60.50   18.19
   2   2  11   25.00   17.49
   2   2  12    2.36   16.74
   2   3 -13   93.50   20.15
   2   3 -12   87.16   13.78
   2   3 -11  119.20   13.15
   2   3 -10  134.22   11.74
   2   3  -9   63.54    7.90
   2   3  -8   62.38    6.48
   2   3  -7  243.66   10.25
   2   3  -6  210.78   13.47
   2   3  -5  290.43   18.21
   2   3  -4  220.54    6.71
   2   3  -3  209.23   11.22
   2   3  -2  695.83    9.00
   2   3  -1  207.90    6.39
   2   3   0  247.57    4.26
   2   3   1   12.92    4.19
   2   3   2   74.80    4.71
   2   3   3   93.03    6.94
   2   3   4  500.87    8.88
   2   3   5  209.01    6.30
   2   3   6  104.26    7.36
   2   3   7   58.37    8.14
   2   3   8   39.60    8.90
   2   3   9   57.61   15.84
   2   3  10   50.50   16.87
   2   3  11   41.41   18.36
   2   4 -12   30.26   17.47
   2   4 -11   78.28   18.30
   2   4 -10  109.28   17.69
   2   4  -9   47.53   12.96
   2   4  -8   50.91   20.80
   2   4  -7  229.99   15.17
   2   4  -6   51.71   10.43
   2   4  -5  140.51   13.81
   2   4  -4   90.84    5.48
   2   4  -3   99.39   17.20
   2   4  -2  505.56   20.21
   2   4  -1  225.49   13.85
   2   4   0  206.40   33.94
   2   4   1   76.36    3.34
   2   4   2  100.62    5.35
   2   4   3  115.15    7.91
   2   4   4  285.39    8.07
   2   4   5  132.61    6.23
   2   4   6   83.21    9.56
   2   4   7   37.02    8.66
   2   4   8   42.42   10.59
   2   4   9   72.63    9.94
   2   4  10   55.86   17.52
   2   4  11   75.39   18.34
   2   5  -8    8.24   11.45
   2   5  -7  122.12   14.84
   2   5  -6   58.29   12.88
   2   5  -5   75.98   12.48
   2   5  -4   24.16   12.11
   2   5  -3   29.43   11.88
   2   5  -2  128.69   14.41
   2   5  -1   24.17   11.86
   2   5   0   30.26   12.25
   2   5   1    9.97   11.78
   2   5   2    3.85    4.31
   2   5   3   18.30    5.05
   2   5   4  110.24    6.70
   2   5   5   46.40    6.46
   2   5   6   25.68    8.30
   2   5   7   24.03    8.75
   2   5   8   17.74   14.74
   2   5   9   14.67   14.64
   2   5  10   11.03   15.02
   2   5  11   10.99   18.36
   2   6  -7  220.92   18.26
   2   6  -6   41.90   14.28
   2   6  -5  115.10   14.95
   2   6  -4  108.85   16.35
   2   6  -3  162.37   17.42
   2   6  -2  327.29   22.15
   2   6  -1  158.41   16.66
   2   6   0  121.75   17.93
   2   6   1   99.47   16.51
   2   6   2   41.88   14.78
   2   6   3   92.53   16.50
   2   6   4  126.34   17.61
   2   6   5  140.24   16.93
   2   6   6  108.96   19.04
   2   6   7   26.24   15.91
   2   6   8   28.14   16.63
   2   6   9   27.77   16.33
   2   7  -7  149.87   18.79
   2   7  -6    1.35   13.52
   2   7  -5   36.79   16.34
   2   7  -4   16.37   15.56
   2   7  -3   36.84   15.74
   2   7  -2  117.73   18.43
   2   7  -1   49.37   16.61
   2   7   0   68.37   16.73
   2   7   1   80.38   18.21
   2   7   2   60.23   17.25
   2   7   3   80.03   18.30
   2   7   4   79.77   17.93
   2   7   5   81.85   19.93
   2   7   6   46.02   18.18
   2   7   7   38.14   17.51
   2   7   8   17.71   18.94
   2   8  -6    1.62   16.01
   2   8  -5   13.60   16.84
   2   8  -4   21.32   17.80
   2   8  -3   22.46   16.83
   2   8  -2   39.77   18.30
   2   8  -1   36.87   18.50
   2   8   0   38.87   18.10
   2   8   1    8.69   17.94
   2   8   2    6.24   17.38
   2   8   3    6.18   17.56
   2   8   4   26.17   19.05
   3  -8  -4   19.92   19.19
   3  -8  -3   19.01   18.09
   3  -8  -2   20.70   18.54
   3  -8  -1   14.58   17.63
   3  -8   0   15.65   17.66
   3  -8   1   24.52   10.48
   3  -8   2   11.71   10.02
   3  -8   3   11.29   13.96
   3  -8   4   16.32   14.64
   3  -8   5    7.65   15.55
   3  -7  -7   78.63   20.01
   3  -7  -6   31.48   19.00
   3  -7  -5   39.01   17.73
   3  -7  -4  109.42   20.22
   3  -7  -3  125.29   19.09
   3  -7  -2  131.32   19.51
   3  -7  -1   42.66   16.45
   3  -7   0   28.53    9.24
   3  -7   1   41.09   15.82
   3  -7   2   30.55    9.83
   3  -7   3   15.23    9.23
   3  -7   4   71.65   11.12
   3  -7   5   61.52   14.70
   3  -7   6   30.21   13.54
   3  -6 -10  104.04   20.48
   3  -6  -9   74.62   20.21
   3  -6  -8  116.60   19.84
   3  -6  -7   74.07   18.64
   3  -6  -6   68.61   16.43
   3  -6  -5   30.85   16.72
   3  -6  -4   96.60   16.58
   3  -6  -3  141.19   19.13
   3  -6  -2  205.76   10.37
   3  -6  -1  114.13   14.04
   3  -6   0  111.89    9.93
   3  -6   1  114.22    9.58
   3  -6   2  116.07   12.27
   3  -6   3   46.23    9.50
   3  -6   4  158.08   11.64
   3  -6   5   80.40   10.75
   3  -6   6   37.89   10.04
   3  -6   7   39.62   15.16
   3  -6   8   32.44   17.40
   3  -6   9  128.24   20.41
   3  -5 -11    6.61   15.74
   3  -5 -10   52.41   16.61
   3  -5  -9   22.80   15.54
   3  -5  -8   33.40   14.92
   3  -5  -7   44.21   15.04
   3  -5  -6   32.77   15.70
   3  -5  -5   33.30   13.43
   3  -5  -4   85.61   16.15
   3  -5  -3   44.59   13.84
   3  -5  -2   92.18    7.60
   3  -5  -1   37.55    7.14
   3  -5   0   66.53    7.37
   3  -5   1   18.30    7.14
   3  -5   2   19.87    7.42
   3  -5   3    9.99    9.40
   3  -5   4  137.24   13.19
   3  -5   5   30.32    7.64
   3  -5   6    4.41   12.87
   3  -5   7   11.47   15.34
   3  -5   8   79.36   19.64
   3  -5   9   25.37   18.01
   3  -5  10   10.53   17.79
   3  -4 -11   49.93   16.39
   3  -4 -10  132.00   17.55
   3  -4  -9   95.88   10.07
   3  -4  -8  133.22   10.67
   3  -4  -7  103.34    8.75
   3  -4  -6   54.91    6.70
   3  -4  -5   45.32    6.34
   3  -4  -4  134.68   19.05
   3  -4  -3  180.77   15.86
   3  -4  -2  440.92   16.24
   3  -4  -1  193.62    7.50
   3  -4   0  226.56   10.01
   3  -4   1   52.76   10.25
   3  -4   2   95.25    6.59
   3  -4   3   59.90   10.56
   3  -4   4  209.98   12.48
   3  -4   5   86.54    8.04
   3  -4   6   48.12   14.08
   3  -4   7   68.43   15.72
   3  -4   8   50.01   15.82
   3  -4   9  100.29   18.39
   3  -4  10   28.70   19.91
   3  -3 -13   14.47   16.81
   3  -3 -12   43.61   17.27
   3  -3 -11   50.16   10.48
   3  -3 -10  147.30   12.72
   3  -3  -9   69.74    9.87
   3  -3  -8  135.41    9.09
   3  -3  -7  229.77   16.17
   3  -3  -6  123.93    8.58
   3  -3  -5  147.89    7.06
   3  -3  -4  166.58    6.39
   3  -3  -3  177.54   14.42
   3  -3  -2  556.09   15.01
   3  -3  -1  242.14    8.30
   3  -3   0  288.64   14.28
   3  -3   1  137.04   11.72
   3  -3   2  260.00    6.78
   3  -3   3  210.05    7.31
   3  -3   4  452.23   15.49
   3  -3   5  149.46    8.47
   3  -3   6   56.83    6.44
   3  -3   7   82.42   15.29
   3  -3   8  128.21   18.47
   3  -3   9   98.10   18.46
   3  -3  10   46.72   18.20
   3  -3  11   59.77   21.72
   3  -2 -13   36.18   17.59
   3  -2 -12   49.33   16.55
   3  -2 -11   39.25   14.19
   3  -2 -10   68.49   14.67
   3  -2  -9   14.59    8.32
   3  -2  -8   53.56   12.25
   3  -2  -7  194.65   10.17
   3  -2  -6   37.75    6.47
   3  -2  -5   64.61    6.33
   3  -2  -4   62.21    5.91
   3  -2  -3  122.09   11.82
   3  -2  -2  530.60   20.04
   3  -2  -1  122.96   11.46
   3  -2   0   99.76   12.17
   3  -2   1   64.15    4.55
   3  -2   2   78.03    5.40
   3  -2   3   84.77    5.96
   3  -2   4  234.15   11.52
   3  -2   5   64.71    6.02
   3  -2   6   47.77    4.03
   3  -2   7   76.45   15.12
   3  -2   8   81.77   16.32
   3  -2   9   37.91   15.69
   3  -2  10   11.26   16.14
   3  -2  11   24.03   18.99
   3  -1 -13    7.56   18.24
   3  -1 -12   32.43   16.01
   3  -1 -11   61.71   11.69
   3  -1 -10  119.66    9.59
   3  -1  -9  105.27   17.29
   3  -1  -8   82.70    8.83
   3  -1  -7  271.06   15.15
   3  -1  -6   13.21    6.37
   3  -1  -5   33.92    6.55
   3  -1  -4   42.28    8.03
   3  -1  -3  169.38   12.71
   3  -1  -2  976.96   52.73
   3  -1  -1  310.55   15.25
   3  -1   0  321.56    6.44
   3  -1   1  132.43    8.36
   3  -1   2  241.47    8.14
   3  -1   3  181.85    7.49
   3  -1   4  247.33    8.79
   3  -1   5   88.48   11.11
   3  -1   6  102.46    5.35
   3  -1   7  128.88   15.60
   3  -1   8  205.55   18.76
   3  -1   9   96.28   17.45
   3  -1  10   19.46    8.81
   3  -1  11   27.64   14.16
   3   1 -13    2.66   21.14
   3   1 -12   27.55   11.79
   3   1 -11   58.17   11.56
   3   1 -10   62.81    9.61
   3   1  -9   86.18   12.24
   3   1  -8   87.67    7.08
   3   1  -7  438.51   25.01
   3   1  -6    1.58    5.33
   3   1  -5   33.44    9.16
   3   1  -4   55.27    9.01
   3   1  -3  256.82   38.39
   3   1  -2  933.06   68.24
   3   1  -1  315.39    9.42
   3   1   0  219.78   13.45
   3   1   1  157.29    5.66
   3   1   2  145.26   11.45
   3   1   3  128.69    6.35
   3   1   4  111.50    6.39
   3   1   5   90.09   22.65
   3   1   6   91.87    9.40
   3   1   7  123.11    7.66
   3   1   8   97.33   14.19
   3   1   9   44.65   12.19
   3   1  10   23.76   12.13
   3   1  11   30.12   14.67
   3   2 -13    0.91   18.42
   3   2 -12   40.39   12.88
   3   2 -11    2.42   10.80
   3   2 -10   13.16    7.56
   3   2  -9   54.69    8.20
   3   2  -8   40.47   10.79
   3   2  -7  297.24   24.91
   3   2  -6   24.48    7.77
   3   2  -5   39.72    6.28
   3   2  -4   37.72    5.87
   3   2  -3  111.59    7.70
   3   2  -2  308.89   19.61
   3   2  -1  136.45    7.24
   3   2   0  133.01    6.53
   3   2   1  129.12   13.47
   3   2   2  111.68    7.21
   3   2   3  138.00    8.18
   3   2   4  159.21    9.95
   3   2   5  144.20    8.73
   3   2   6   70.88    8.46
   3   2   7   83.04    9.18
   3   2   8   44.84   14.62
   3   2   9   81.28   16.65
   3   2  10   11.81   16.23
   3   2  11   58.55   19.67
   3   3 -13   41.99   19.63
   3   3 -12  125.84   19.87
   3   3 -11   17.84   16.09
   3   3 -10   31.42   14.81
   3   3  -9   74.12    9.24
   3   3  -8  109.29   10.10
   3   3  -7  421.10   12.79
   3   3  -6   63.20    7.69
   3   3  -5  118.96    7.60
   3   3  -4  178.15    7.51
   3   3  -3  270.21   14.71
   3   3  -2  420.04    9.75
   3   3  -1  347.48    8.71
   3   3   0  287.49    9.22
   3   3   1  201.37    5.84
   3   3   2  203.53    9.85
   3   3   3  214.07    9.80
   3   3   4  276.71   18.18
   3   3   5  231.89   11.02
   3   3   6  133.19   14.92
   3   3   7  203.75   11.41
   3   3   8   94.40   10.10
   3   3   9  140.84   18.90
   3   3  10   39.42   16.70
   3   3  11   46.80   19.38
   3   4  -9  100.83   14.93
   3   4  -8   86.53    9.24
   3   4  -7  228.00   21.81
   3   4  -6   54.48   11.67
   3   4  -5   22.20   12.55
   3   4  -4   28.09   11.62
   3   4  -3   96.55   13.76
   3   4  -2  257.31   17.52
   3   4  -1  228.33    3.76
   3   4   0  168.43    4.80
   3   4   1  112.84    5.62
   3   4   2  109.89    7.16
   3   4   3   83.20    8.04
   3   4   4   92.80    8.72
   3   4   5   73.45    9.52
   3   4   6   46.67    9.22
   3   4   7  118.12   11.18
   3   4   8   97.61   15.00
   3   4   9  129.88   19.01
   3   4  10   39.95   18.59
   3   5  -8    9.49   13.17
   3   5  -7   97.75   15.59
   3   5  -6   66.83   15.87
   3   5  -5   31.98   13.07
   3   5  -4   46.68   14.28
   3   5  -3   37.19   13.30
   3   5  -2   41.93   13.68
   3   5  -1   82.37   14.87
   3   5   0   98.54   15.46
   3   5   1   13.24   12.62
   3   5   2  119.44   17.12
   3   5   3   73.39   14.50
   3   5   4  157.64   18.76
   3   5   5   75.24    9.28
   3   5   6   17.16    9.20
   3   5   7  106.70   11.43
   3   5   8   42.27   10.91
   3   5   9   58.31   16.73
   3   6  -8   53.80   15.87
   3   6  -7  118.69   17.60
   3   6  -6   43.63   14.50
   3   6  -5   29.16   15.47
   3   6  -4   32.69   14.78
   3   6  -3   52.56   16.17
   3   6  -2  153.38   17.43
   3   6  -1  193.45   20.34
   3   6   0  133.48   17.86
   3   6   1   68.48   16.76
   3   6   2  115.11   17.24
   3   6   3   63.06   18.08
   3   6   4  107.66   17.16
   3   6   5   55.06   18.33
   3   6   6   35.39   16.20
   3   6   7  145.72   21.09
   3   6   8   89.10   18.06
   3   7  -7   55.71   16.71
   3   7  -6   56.17   18.39
   3   7  -5   31.28   16.00
   3   7  -4   38.01   16.99
   3   7  -3   28.74   15.85
   3   7  -2   55.21   17.70
   3   7  -1  104.76   18.67
   3   7   0   74.58   18.55
   3   7   1   24.20   16.54
   3   7   2  141.85   22.04
   3   7   3   56.25   18.88
   3   7   4   78.64   20.47
   3   7   5   22.98   17.33
   3   7   6   11.74   18.85
   4  -8  -1   23.70   18.11
   4  -8   0   16.76   18.52
   4  -8   1   29.36   17.95
   4  -8   2   26.54   17.32
   4  -7  -5   13.53   18.40
   4  -7  -4   34.48   18.17
   4  -7  -3   32.03   17.87
   4  -7  -2   92.41   20.49
   4  -7  -1   36.43   17.38
   4  -7   0   35.41   16.74
   4  -7   1   27.98   15.20
   4  -7   2   55.48   16.28
   4  -7   3   67.53   12.18
   4  -7   4   34.71   11.23
   4  -7   5   28.92   11.29
   4  -7   6   45.40   16.64
   4  -6  -8   43.96   19.53
   4  -6  -7  109.75   20.50
   4  -6  -6   33.66   17.10
   4  -6  -5   12.32   15.59
   4  -6  -4   23.92   16.96
   4  -6  -3   95.98   17.75
   4  -6  -2  145.85   18.64
   4  -6  -1   88.70   17.16
   4  -6   0   74.06   15.47
   4  -6   1   72.22   10.20
   4  -6   2   64.08    9.44
   4  -6   3   54.28    9.89
   4  -6   4   22.99   11.68
   4  -6   5   23.23   15.68
   4  -6   6   47.13   17.19
   4  -6   7   77.31   19.53
   4  -6   8   94.10   21.20
   4  -5 -11    0.07   17.49
   4  -5 -10    1.01   18.17
   4  -5  -9    0.85   16.37
   4  -5  -8   10.05   16.56
   4  -5  -7  112.59   18.21
   4  -5  -6   44.49   15.59
   4  -5  -5   65.21   16.34
   4  -5  -4   44.67   15.37
   4  -5  -3   33.34   14.62
   4  -5  -2   45.27   15.11
   4  -5  -1   46.50   13.45
   4  -5   0   30.51   14.29
   4  -5   1   70.75    8.04
   4  -5   2   84.58   15.36
   4  -5   3  125.15   14.96
   4  -5   4   50.38   12.71
   4  -5   5   32.01   15.02
   4  -5   6   27.03   16.49
   4  -5   7   58.46   18.15
   4  -5   8   49.87   18.82
   4  -4 -11    0.89   16.06
   4  -4 -10   27.46   16.35
   4  -4  -9   40.93   16.90
   4  -4  -8   29.32   15.51
   4  -4  -7  140.30   18.76
   4  -4  -6   35.87   14.12
   4  -4  -5    5.59   13.63
   4  -4  -4   13.32   13.10
   4  -4  -3   61.92   13.92
   4  -4  -2  155.82   15.93
   4  -4  -1   84.67    7.04
   4  -4   0   61.33   13.24
   4  -4   1   65.88   14.36
   4  -4   2   56.15   12.03
   4  -4   3   58.84   11.88
   4  -4   4   10.18   10.31
   4  -4   5   29.87    8.32
   4  -4   6   32.18   15.05
   4  -4   7  123.22   19.26
   4  -4   8   87.25   19.80
   4  -4   9   50.42   18.40
   4  -3 -11   22.75   15.85
   4  -3 -10    4.61   14.47
   4  -3  -9   64.66   15.09
   4  -3  -8   84.46   17.28
   4  -3  -7  256.68   10.42
   4  -3  -6  146.31   17.50
   4  -3  -5  104.49   14.84
   4  -3  -4  116.59   15.51
   4  -3  -3  145.47   15.39
   4  -3  -2  173.92    5.40
   4  -3  -1  159.10   14.87
   4  -3   0  151.64   16.09
   4  -3   1  180.84   12.97
   4  -3   2  251.76   17.26
   4  -3   3  215.27   13.96
   4  -3   4  113.38   12.66
   4  -3   5   81.13    8.44
   4  -3   6   47.27   16.06
   4  -3   7  179.98   19.54
   4  -3   8   93.77   19.76
   4  -3   9  100.37   20.18
   4  -2 -12   74.70   82.46
   4  -2 -11    0.50    9.62
   4  -2 -10    0.34    9.39
   4  -2  -9   17.75    8.92
   4  -2  -8   46.02    8.19
   4  -2  -7  231.00   11.31
   4  -2  -6   83.38   13.23
   4  -2  -5   38.44   14.40
   4  -2  -4   43.17   11.59
   4  -2  -3   40.51   12.07
   4  -2  -2   70.44   12.37
   4  -2  -1   85.39   12.72
   4  -2   0   50.01   10.99
   4  -2   1   44.99    6.70
   4  -2   2  159.58    6.24
   4  -2   3  127.51   13.32
   4  -2   4   81.10    9.28
   4  -2   5   55.26    8.95
   4  -2   6   17.86    7.06
   4  -2   7  145.37   20.07
   4  -2   8   94.13   19.36
   4  -2   9  109.92   20.87
   4  -2  10   22.68   18.70
   4  -1 -13   11.00   16.52
   4  -1 -12  122.90   41.50
   4  -1 -11   13.90   16.15
   4  -1 -10   25.90    8.50
   4  -1  -9   65.57    8.98
   4  -1  -8   71.80    9.52
   4  -1  -7  160.03   14.55
   4  -1  -6   95.68   14.03
   4  -1  -5   21.67    7.87
   4  -1  -4   22.44   11.21
   4  -1  -3   63.92    3.61
   4  -1  -2  106.82    5.51
   4  -1  -1  120.76   12.13
   4  -1   0  118.60   10.28
   4  -1   1   42.72    5.19
   4  -1   2  158.12   13.53
   4  -1   3   44.41    8.30
   4  -1   4   45.14   10.84
   4  -1   5    9.57    6.77
   4  -1   6    5.51   13.12
   4  -1   7  145.91   17.13
   4  -1   8  137.44   17.84
   4  -1   9  134.16   19.09
   4  -1  10   39.10   20.84
   4   1 -12    1.33   23.44
   4   1 -11    0.86   16.98
   4   1 -10   16.94    9.41
   4   1  -9   82.42    9.96
   4   1  -8  100.90   38.93
   4   1  -7  153.90   10.29
   4   1  -6  100.25   13.98
   4   1  -5    5.27   11.24
   4   1  -4    2.38    9.93
   4   1  -3    4.58   10.24
   4   1  -2   68.28   11.33
   4   1  -1  127.08   12.14
   4   1   0   97.43    6.24
   4   1   1    8.71    5.11
   4   1   2  185.33    8.70
   4   1   3   63.96    9.20
   4   1   4   49.94    8.77
   4   1   5    8.57    6.39
   4   1   6   15.25    6.72
   4   1   7  193.52   18.30
   4   1   8  101.99   15.63
   4   1   9   65.64   15.63
   4   1  10   23.40   12.99
   4   2 -11    0.59   19.64
   4   2 -10   15.91   10.05
   4   2  -9   56.27   12.25
   4   2  -8   43.11    9.35
   4   2  -7   77.95   17.25
   4   2  -6  194.89    9.59
   4   2  -5   54.58    8.36
   4   2  -4   52.31   11.38
   4   2  -3   32.68    8.02
   4   2  -2   37.37    6.03
   4   2  -1   53.49   12.76
   4   2   0   58.90   11.93
   4   2   1    2.98   10.50
   4   2   2  329.42   16.79
   4   2   3  103.27   10.17
   4   2   4   76.29    7.61
   4   2   5    6.84    8.24
   4   2   6    6.45    8.38
   4   2   7   97.85   16.89
   4   2   8   56.94   16.25
   4   2   9   40.59   17.77
   4   2  10   29.89   18.72
   4   3 -10   20.05   13.44
   4   3  -9   38.68   13.75
   4   3  -8   67.87   15.32
   4   3  -7  121.64   15.47
   4   3  -6  255.80   20.40
   4   3  -5  116.51   13.59
   4   3  -4   56.60   15.41
   4   3  -3  138.61   13.84
   4   3  -2  150.59   16.55
   4   3  -1  127.95   14.80
   4   3   0  107.48   14.84
   4   3   1    4.46    6.68
   4   3   2  445.06   18.05
   4   3   3  198.37    9.97
   4   3   4  182.79   12.52
   4   3   5   79.64    9.36
   4   3   6   84.96   10.54
   4   3   7  185.70   12.60
   4   3   8  116.71   18.96
   4   3   9   86.45   18.03
   4   3  10   75.44   19.98
   4   4  -9   49.39   14.99
   4   4  -8   49.65   14.18
   4   4  -7   46.23   15.19
   4   4  -6   30.56   12.76
   4   4  -5    7.63   12.95
   4   4  -4    4.06   12.51
   4   4  -3   39.67   14.68
   4   4  -2   68.92   14.65
   4   4  -1   64.77   15.14
   4   4   0   44.95    9.06
   4   4   1    7.75    6.53
   4   4   2  190.56   10.00
   4   4   3   30.14    8.32
   4   4   4    8.47    7.79
   4   4   5    5.45    8.79
   4   4   6    7.78    9.72
   4   4   7   97.15   11.83
   4   4   8   80.48   17.54
   4   4   9   48.12   18.29
   4   4  10   45.16   20.21
   4   5  -9   15.48   15.03
   4   5  -8   26.62   14.51
   4   5  -7   55.76   15.15
   4   5  -6   98.21   18.35
   4   5  -5   67.48   15.16
   4   5  -4   12.57   15.28
   4   5  -3   51.85   14.80
   4   5  -2   39.09   15.92
   4   5  -1   23.23   13.69
   4   5   0   10.14   13.83
   4   5   1    1.93   14.37
   4   5   2  257.29   21.67
   4   5   3   96.82   16.88
   4   5   4   65.31   16.53
   4   5   5   32.24   16.41
   4   5   6   11.08   14.57
   4   5   7   31.86   16.69
   4   6  -8   53.99   18.16
   4   6  -7   57.84   17.37
   4   6  -6   11.08   16.23
   4   6  -5   13.95   16.20
   4   6  -4    1.93   14.99
   4   6  -3   50.85   17.46
   4   6  -2   60.37   16.24
   4   6  -1   42.20   16.12
   4   6   0   28.91   16.28
   4   6   1    7.23   16.30
   4   6   2  130.22   19.79
   4   6   3   34.25   17.14
   4   6   4    7.17   16.40
   4   6   5   20.62   17.80
   4   6   6   31.31   18.85
   4   6   7   88.73   19.63
   4   7  -5   41.40   19.25
   4   7  -4    5.22   17.78
   4   7  -3   47.97   19.58
   4   7  -2   45.90   19.84
   4   7  -1   25.27   18.77
   4   7   0   16.54   18.64
   4   7   1    3.04   17.96
   4   7   2   86.64   21.36
   5  -7  -2   16.55   19.55
   5  -7  -1   45.30   19.13
   5  -7   0   12.56   17.97
   5  -7   1    1.19   15.92
   5  -7   2   36.05   17.35
   5  -6  -6   69.98   19.84
   5  -6  -5   15.97   19.28
   5  -6  -4   50.45   16.97
   5  -6  -3   47.13   18.01
   5  -6  -2   43.15   17.48
   5  -6  -1   58.10   18.11
   5  -6   0   36.89   15.74
   5  -6   1    5.01   16.18
   5  -6   2   55.94   16.25
   5  -6   3   28.30   16.05
   5  -6   5   15.65   16.76
   5  -5  -8   48.15   20.17
   5  -5  -7   34.10   17.89
   5  -5  -6  139.34   21.47
   5  -5  -5   67.43   17.06
   5  -5  -4   35.63   17.99
   5  -5  -3   34.85   16.21
   5  -5  -2    0.82   14.70
   5  -5  -1    3.12   14.80
   5  -5   0    0.61   14.89
   5  -5   1    9.92   14.55
   5  -5   2  131.00   17.56
   5  -5   3   80.36   14.73
   5  -5   4   44.28   14.55
   5  -5   5   16.78   17.26
   5  -5   6    5.26   17.08
   5  -4 -10   45.47   20.28
   5  -4  -9   34.18   18.03
   5  -4  -8   38.19   16.72
   5  -4  -7   33.21   16.03
   5  -4  -6   91.93   17.32
   5  -4  -5   10.91   15.32
   5  -4  -4   12.75   14.18
   5  -4  -3   27.19   16.03
   5  -4  -2   25.81   14.70
   5  -4  -1   62.60   15.55
   5  -4   0   44.31   14.49
   5  -4   1    0.82   13.05
   5  -4   2  102.31   15.60
   5  -4   3   15.78   12.08
   5  -4   4    9.69   12.28
   5  -4   5   10.43   15.61
   5  -4   6   19.82   16.52
   5  -4   7   96.80   21.06
   5  -3 -11   81.08   17.91
   5  -3 -10  120.55   19.05
   5  -3  -9   71.30   17.98
   5  -3  -8   67.91   18.22
   5  -3  -7   63.24   16.99
   5  -3  -6  284.53   23.61
   5  -3  -5  157.81   16.91
   5  -3  -4  126.72   19.29
   5  -3  -3  128.72   16.16
   5  -3  -2   81.87   16.42
   5  -3  -1   68.10   14.07
   5  -3   0   48.58   13.79
   5  -3   1   15.89   11.94
   5  -3   2  286.40   19.64
   5  -3   3  152.26   14.32
   5  -3   4   61.00   13.03
   5  -3   5   23.75    9.13
   5  -3   6   12.57   16.53
   5  -3   7   69.41   19.85
   5  -3   8   27.25   19.66
   5  -2 -11   40.81   18.00
   5  -2 -10   40.40   16.33
   5  -2  -9   44.26   16.05
   5  -2  -8   55.70   15.01
   5  -2  -7   42.87   14.40
   5  -2  -6  192.91   17.76
   5  -2  -5   58.34   16.31
   5  -2  -4   29.55   13.05
   5  -2  -3   55.66   14.60
   5  -2  -2   36.88   12.92
   5  -2  -1   38.79   13.57
   5  -2   0   26.75   12.43
   5  -2   1    4.66   11.36
   5  -2   2  295.83   18.24
   5  -2   3   59.28   14.33
   5  -2   4   37.13   12.33
   5  -2   5    6.88    8.38
   5  -2   6   27.93   17.35
   5  -2   7   45.45   18.38
   5  -2   8   30.45   18.55
   5  -1 -11  149.05   18.98
   5  -1 -10   74.74   16.17
   5  -1  -9   30.62   13.37
   5  -1  -8   22.63   12.35
   5  -1  -7   18.04   11.75
   5  -1  -6   79.90   15.93
   5  -1  -5   11.16   13.62
   5  -1  -4   35.10   13.72
   5  -1  -3  124.21   13.98
   5  -1  -2  128.31   15.08
   5  -1  -1   41.28   11.33
   5  -1   0   44.48   12.12
   5  -1   1   28.75   10.78
   5  -1   2  235.63   16.61
   5  -1   3   30.08   10.22
   5  -1   4    7.80    7.13
   5  -1   5   22.72    7.80
   5  -1   6   27.58   12.72
   5  -1   7   65.76   15.60
   5  -1   8   41.73   14.29
   5   1 -10   21.41   11.74
   5   1  -9   32.62    9.85
   5   1  -8   39.96    9.76
   5   1  -7   59.64   14.59
   5   1  -6   64.98   14.28
   5   1  -5   52.30   15.58
   5   1  -4    6.20    9.24
   5   1  -3  174.53   17.45
   5   1  -2  101.51   14.50
   5   1  -1   45.10   12.63
   5   1   0   47.48   12.31
   5   1   1   27.66   10.75
   5   1   2  322.67   18.54
   5   1   3   33.99   11.85
   5   1   4    4.97    8.55
   5   1   5   17.35    8.95
   5   1   6   20.81   10.38
   5   1   7   41.90   16.87
   5   1   8   41.95   15.23
   5   1   9   53.01   17.38
   5   2 -10   12.79   15.73
   5   2  -9   18.11   14.81
   5   2  -8   18.18   14.75
   5   2  -7   63.94   16.48
   5   2  -6   59.76   14.90
   5   2  -5   87.89   16.07
   5   2  -4   47.54   15.47
   5   2  -3  208.96   18.07
   5   2  -2  106.11   15.90
   5   2  -1    5.23   13.00
   5   2   0   13.68   12.36
   5   2   1   30.37   12.77
   5   2   2  279.81   18.87
   5   2   3   68.55    9.62
   5   2   4   26.44   10.04
   5   2   5   10.91   14.71
   5   2   6   11.81    9.35
   5   2   7   12.12   14.18
   5   2   8   12.95   14.97
   5   2   9   34.76   19.36
   5   3 -10   19.26   16.04
   5   3  -9   29.12   16.50
   5   3  -8   70.67   17.90
   5   3  -7  142.40   17.65
   5   3  -6  100.85   17.58
   5   3  -5  142.17   18.71
   5   3  -4   66.07   14.96
   5   3  -3  253.87   21.11
   5   3  -2  114.50   17.64
   5   3  -1   41.70   13.80
   5   3   0   49.60   14.85
   5   3   1   83.98   15.93
   5   3   2  353.76   14.31
   5   3   3  122.49   18.05
   5   3   4   83.81   10.65
   5   3   5   58.43   11.01
   5   3   6   43.29   10.69
   5   3   7   51.98   16.86
   5   3   8   51.81   18.67
   5   4  -9   44.34   15.94
   5   4  -8   14.86   15.12
   5   4  -7   50.88   17.94
   5   4  -6   13.66   16.04
   5   4  -5   20.87   15.68
   5   4  -4   45.95   15.95
   5   4  -3  167.81   19.02
   5   4  -2   92.28   17.73
   5   4  -1   40.73   15.78
   5   4   0   61.88   16.75
   5   4   1   46.72   15.57
   5   4   2   66.06   16.09
   5   4   3   24.10   15.08
   5   4   4   21.93   14.40
   5   4   5    1.39   14.56
   5   4   6   14.16   14.99
   5   5  -8   15.63   16.37
   5   5  -7   48.24   18.59
   5   5  -6   13.37   16.55
   5   5  -5   40.50   17.92
   5   5  -4   30.56   16.35
   5   5  -3  146.12   19.93
   5   5  -2   30.01   16.91
   5   5  -1    0.97   16.14
   5   5   0    1.62   15.59
   5   5   1   26.66   16.42
   5   5   2  101.11   19.75
   5   5   3   69.46   18.57
   5   5   4   75.81   17.80
   5   5   5   18.48   17.28
   5   5   6    9.69   17.85
   5   6  -4   36.91   19.51
   5   6  -3   86.77   19.47
   5   6  -2   87.99   20.26
   5   6  -1   60.50   19.54
   5   6   0   78.10   20.08
   5   6   1   51.69   19.22
   5   6   2   53.78   19.43
   5   6   3   63.93   21.39
   6  -6  -1   56.58   20.51
   6  -6   0   29.71   18.91
   6  -6   1   14.33   18.07
   6  -6   2  118.55   20.41
   6  -5  -5   25.13   19.82
   6  -5  -4    6.17   17.72
   6  -5  -3   59.71   19.60
   6  -5  -2   40.61   18.59
   6  -5  -1    4.42   16.55
   6  -5   0    1.86   17.06
   6  -5   1   19.28   16.90
   6  -5   2   92.53   17.53
   6  -5   3   23.39   15.48
   6  -4  -7   65.28   21.87
   6  -4  -6   82.66   19.87
   6  -4  -5    7.57   17.17
   6  -4  -4   34.90   18.43
   6  -4  -3  128.33   18.89
   6  -4  -2  116.39   19.77
   6  -4  -1  106.90   18.48
   6  -4   0   59.19   17.39
   6  -4   1   53.15   16.42
   6  -4   2  154.38   17.99
   6  -4   3   37.76   15.33
   6  -3  -8   17.42   18.29
   6  -3  -7   50.40   18.10
   6  -3  -6   74.84   18.66
   6  -3  -5   65.90   17.85
   6  -3  -4   67.77   16.96
   6  -3  -3  211.17   22.25
   6  -3  -2  102.82   17.58
   6  -3  -1   50.57   16.05
   6  -3   0   52.03   15.19
   6  -3   1   72.58   16.03
   6  -3   2  179.27   18.43
   6  -3   3  104.35   16.53
   6  -3   4   86.42   15.23
   6  -3   5   71.58   21.18
   6  -2 -10   12.26   19.19
   6  -2  -9   27.41   19.80
   6  -2  -8   26.83   18.16
   6  -2  -7   58.81   17.91
   6  -2  -6   27.94   16.15
   6  -2  -5   38.57   15.27
   6  -2  -4   23.20   15.46
   6  -2  -3   81.71   16.44
   6  -2  -2   28.57   14.81
   6  -2  -1   31.53   14.32
   6  -2   0   48.61   15.56
   6  -2   1   88.59   15.53
   6  -2   2  137.19   17.27
   6  -2   3   30.04   14.45
   6  -2   4   25.47   14.90
   6  -2   5   12.10   16.94
   6  -2   6   29.80   18.25
   6  -1 -10   29.14   15.92
   6  -1  -9   27.68   15.23
   6  -1  -8    9.65   10.52
   6  -1  -7   43.62   14.97
   6  -1  -6   13.25   13.36
   6  -1  -5   45.83   15.13
   6  -1  -4   71.21   14.55
   6  -1  -3  142.73   18.29
   6  -1  -2  100.55   16.07
   6  -1  -1  152.84   18.48
   6  -1   0  117.97   14.23
   6  -1   1   81.23   15.04
   6  -1   2   99.58   15.05
   6  -1   3   67.84   13.84
   6  -1   4   84.50   13.46
   6  -1   5   67.32   17.19
   6  -1   6   92.37   18.63
   6   1 -10   44.94   18.79
   6   1  -8   25.52   16.26
   6   1  -7   54.02   16.54
   6   1  -6   52.24   16.22
   6   1  -5   50.14   15.64
   6   1  -4   47.83   14.70
   6   1  -3   75.42   15.16
   6   1  -2  117.31   17.19
   6   1  -1  175.87   19.77
   6   1   0  129.72   16.29
   6   1   1   77.80   15.10
   6   1   2   61.56   15.56
   6   1   3   82.00   15.13
   6   1   4   94.66   11.55
   6   1   5   35.72   13.62
   6   1   6   47.94   16.31
   6   1   7  101.33   20.36
   6   2  -9   14.57   17.75
   6   2  -8   11.29   17.12
   6   2  -7    0.34   16.38
   6   2  -6   32.55   16.68
   6   2  -5   30.68   16.15
   6   2  -4   49.80   16.86
   6   2  -3   94.62   18.01
   6   2  -2   69.53   17.90
   6   2  -1   68.12   16.11
   6   2   0   64.30   15.86
   6   2   1   21.17   14.47
   6   2   2   13.96   14.17
   6   2   3   53.57   19.74
   6   2   4  111.80   11.59
   6   2   5   20.21   11.11
   6   2   6   37.90   17.67
   6   2   7   51.40   19.68
   6   3  -8   48.10   18.70
   6   3  -7   57.12   19.88
   6   3  -6   74.75   19.68
   6   3  -5   63.08   17.76
   6   3  -4   50.72   18.33
   6   3  -3   69.12   17.69
   6   3  -2   93.15   18.50
   6   3  -1   74.15   18.56
   6   3   0  109.66   18.54
   6   3   1   64.41   17.38
   6   3   2   80.49   17.92
   6   3   3   67.34   11.41
   6   3   4   95.11   16.51
   6   3   5   11.29   10.77
   6   3   6   54.72   18.26
   6   3   7   64.85   18.52
   6   4  -6   33.76   18.49
   6   4  -5   37.94   18.74
   6   4  -4   69.36   18.48
   6   4  -3   45.00   18.69
   6   4  -2  119.10   20.32
   6   4  -1   76.55   18.47
   6   4   0   99.81   19.26
   6   4   1   34.53   17.69
   6   4   2   48.97   17.65
   6   4   3   55.81   17.67
   6   4   4   99.94   20.10
   6   4   5   19.52   18.12
   7  -4  -2   39.12   20.25
   7  -4  -1   84.78   20.26
   7  -4   0   59.13   19.55
   7  -4   1   48.74   19.32
   7  -4   2   16.29   18.68
   7  -3  -4   54.45   20.58
   7  -3  -3   18.31   18.99
   7  -3  -2   38.62   18.99
   7  -3  -1   67.85   18.34
   7  -3   0   52.34   18.67
   7  -3   1   30.95   16.31
   7  -3   2   22.43   18.26
   7  -3   3   74.26   18.58
   7  -2  -5    7.05   19.75
   7  -2  -4    0.77   17.69
   7  -2  -3    5.84   16.59
   7  -2  -2   20.93   16.63
   7  -2  -1   38.23   18.03
   7  -2   0   65.05   18.39
   7  -2   1   19.33   16.79
   7  -2   2   28.49   17.02
   7  -2   3   26.91   17.67
   7  -1  -5   43.24   17.23
   7  -1  -4   33.86   17.05
   7  -1  -3    7.51   14.70
   7  -1  -2   48.61   16.80
   7  -1  -1   33.27   16.86
   7  -1   0   56.27   16.15
   7  -1   1    1.49   16.51
   7  -1   2   35.55   11.33
   7  -1   3   33.37   13.90
   7   1  -5   59.95   19.04
   7   1  -4   22.16   17.06
   7   1  -3   32.09   18.04
   7   1  -2   12.27   14.57
   7   1  -1   11.06   13.02
   7   1   0   72.75   18.29
   7   1   1   25.22   16.38
   7   1   2   55.50   17.29
   7   1   3   21.26   11.26
   7   1   4   28.61   17.36
   7   2  -4    1.55   18.11
   7   2  -3   12.76   17.53
   7   2  -2    7.22   18.06
   7   2  -1    3.06   17.47
   7   2   0   21.46   17.52
   7   2   1   11.26   17.91
   7   2   2    7.26   11.43
   7   2   3   16.41   11.64
   7   2   4   15.88   11.83
   7   3   0   95.73   21.20
   7   3   1   57.86   19.47
   7   3   2   32.16   18.53
   7   3   3   10.34   18.36
   7   3   4    2.19   17.81
   0   0   0    0.00    0.00
;
_shelx_hkl_checksum              28812
_shelx_shelxl_version_number     2014/7
_olex2_submission_special_instructions 'No special instructions were received'
loop_
_space_group_symop_operation_xyz
'x, y, z'
loop_
_atom_site_label
_atom_site_type_symbol
_atom_site_fract_x
_atom_site_fract_y
_atom_site_fract_z
_atom_site_U_iso_or_equiv
_atom_site_adp_type
_atom_site_occupancy
_atom_site_site_symmetry_order
_atom_site_calc_flag
_atom_site_refinement_flags_posn
_atom_site_refinement_flags_adp
Co1 Co 0.00025(13) 0.00012(12) 0.00025(11) 0.0094(3) Uani 1 1 d . .
O2 O -0.2750(9) -0.0232(7) 0.1263(5) 0.0128(12) Uani 1 1 d . U
O1W O 0.3378(9) 0.0255(7) -0.0274(5) 0.0140(12) Uani 1 1 d . U
H1WA H 0.3688 -0.0572 -0.0809 0.021 Uiso 1 1 d GR .
H1WB H 0.4195 0.0074 0.0434 0.021 Uiso 1 1 d GR .
C14 C 0.1548(15) 0.6113(11) 0.1005(8) 0.0170(18) Uani 1 1 d . U
H14A H 0.1205 0.6664 0.1784 0.020 Uiso 1 1 calc R .
H14B H 0.3098 0.6495 0.0886 0.020 Uiso 1 1 calc R .
N2 N 0.0030(16) 0.6857(11) -0.0072(9) 0.0122(18) Uani 1 1 d . U
C11 C -0.2316(14) 0.3805(10) -0.0122(8) 0.0150(17) Uani 1 1 d . U
H11A H -0.3122 0.3169 0.0525 0.018 Uiso 1 1 calc R .
H11B H -0.3106 0.3477 -0.0940 0.018 Uiso 1 1 calc R .
C10 C 0.0771(15) 0.6127(10) -0.1260(8) 0.0157(18) Uani 1 1 d . U
H10A H 0.2182 0.6786 -0.1426 0.019 Uiso 1 1 calc R .
H10B H -0.0345 0.6378 -0.1964 0.019 Uiso 1 1 calc R .
C9 C 0.1078(14) 0.4041(10) -0.1161(7) 0.0134(17) Uani 1 1 d . U
H9A H 0.2674 0.3827 -0.1078 0.016 Uiso 1 1 calc R .
H9B H 0.0390 0.3437 -0.1930 0.016 Uiso 1 1 calc R .
C12 C -0.2272(15) 0.5935(11) 0.0052(8) 0.0203(19) Uani 1 1 d . U
H12A H -0.3357 0.6471 -0.0576 0.024 Uiso 1 1 calc R .
H12B H -0.2709 0.6197 0.0881 0.024 Uiso 1 1 calc R .
O1 O 0.0793(10) 0.0024(7) 0.1979(5) 0.0118(14) Uani 1 1 d . U
O4 O -0.1417(10) 0.0072(8) 0.8197(6) 0.0142(14) Uani 1 1 d . U
C1 C -0.1744(13) -0.0159(10) 0.3516(7) 0.0115(16) Uani 1 1 d . U
C6 C -0.0001(16) 0.0256(12) 0.4451(9) 0.018(2) Uani 1 1 d . U
H6 H 0.1432 0.0612 0.4233 0.022 Uiso 1 1 calc R .
C7 C -0.1179(13) -0.0107(10) 0.2187(7) 0.0101(16) Uani 1 1 d . U
C3 C -0.4312(14) -0.0756(10) 0.5116(7) 0.0141(16) Uani 1 1 d . U
H3 H -0.5746 -0.1119 0.5329 0.017 Uiso 1 1 calc R .
C2 C -0.3922(13) -0.0623(10) 0.3847(7) 0.0133(16) Uani 1 1 d . U
H2 H -0.5110 -0.0842 0.3218 0.016 Uiso 1 1 calc R .
O3 O -0.4988(10) -0.0876(8) 0.7643(6) 0.0251(14) Uani 1 1 d . U
C8 C -0.3065(13) -0.0392(10) 0.7415(7) 0.0116(16) Uani 1 1 d . U
C13 C 0.1304(14) 0.4001(10) 0.1117(7) 0.0134(17) Uani 1 1 d . U
H13A H 0.2786 0.3500 0.1243 0.016 Uiso 1 1 calc R .
H13B H 0.0521 0.3651 0.1847 0.016 Uiso 1 1 calc R .
C4 C -0.2575(14) -0.0351(10) 0.6064(8) 0.0153(17) Uani 1 1 d . U
N1 N 0.0028(15) 0.3158(10) -0.0037(8) 0.0082(17) Uani 1 1 d . U
C5 C -0.0392(16) 0.0142(12) 0.5716(9) 0.020(2) Uani 1 1 d . U
H5 H 0.0794 0.0393 0.6340 0.024 Uiso 1 1 calc R .
loop_
_atom_site_aniso_label
_atom_site_aniso_U_11
_atom_site_aniso_U_22
_atom_site_aniso_U_33
_atom_site_aniso_U_23
_atom_site_aniso_U_13
_atom_site_aniso_U_12
Co1 0.0087(5) 0.0152(5) 0.0039(4) -0.0020(3) -0.0011(3) -0.0006(3)
O2 0.0143(16) 0.0129(16) 0.0112(16) 0.0002(12) 0.0015(12) 0.0010(12)
O1W 0.014(2) 0.013(2) 0.015(2) -0.0050(17) -0.0031(18) 0.0034(17)
C14 0.017(2) 0.017(2) 0.017(2) -0.0013(13) 0.0013(13) 0.0016(13)
N2 0.013(2) 0.012(2) 0.012(2) 0.0004(13) 0.0014(13) 0.0005(13)
C11 0.015(2) 0.015(2) 0.016(2) -0.0005(13) 0.0010(13) 0.0010(13)
C10 0.017(2) 0.016(2) 0.015(2) -0.0004(13) 0.0027(13) 0.0014(13)
C9 0.013(2) 0.014(2) 0.013(2) 0.0000(13) 0.0012(13) 0.0007(13)
C12 0.020(2) 0.020(2) 0.021(2) -0.0002(13) 0.0020(13) 0.0009(13)
O1 0.0120(18) 0.0118(17) 0.0118(18) 0.0001(12) 0.0019(13) 0.0005(12)
O4 0.0135(18) 0.0150(17) 0.0142(18) 0.0008(12) 0.0022(13) 0.0001(12)
C1 0.011(2) 0.0117(19) 0.012(2) 0.0007(13) 0.0012(13) 0.0013(13)
C6 0.018(2) 0.019(2) 0.018(2) -0.0001(13) 0.0013(14) 0.0011(13)
C7 0.010(2) 0.0096(19) 0.0103(19) -0.0007(13) 0.0007(13) 0.0006(13)
C3 0.014(2) 0.015(2) 0.014(2) -0.0006(13) 0.0017(13) 0.0004(13)
C2 0.013(2) 0.014(2) 0.013(2) 0.0005(13) 0.0014(13) 0.0000(13)
O3 0.023(2) 0.031(2) 0.021(2) -0.0013(19) 0.003(2) 0.0033(19)
C8 0.0114(19) 0.0122(19) 0.0112(19) -0.0004(13) 0.0012(13) 0.0012(13)
C13 0.013(2) 0.014(2) 0.013(2) -0.0006(13) 0.0010(13) 0.0007(13)
C4 0.016(2) 0.015(2) 0.015(2) 0.0000(13) 0.0016(13) 0.0013(13)
N1 0.008(2) 0.009(2) 0.008(2) -0.0003(12) 0.0015(13) -0.0001(13)
C5 0.020(2) 0.021(2) 0.019(2) -0.0003(13) 0.0017(14) 0.0014(14)
loop_
_atom_type_symbol
_atom_type_description
_atom_type_scat_dispersion_real
_atom_type_scat_dispersion_imag
_atom_type_scat_source
C C 0.0033 0.0016 'International Tables Vol C Tables 4.2.6.8 and 6.1.1.4'
H H 0.0000 0.0000 'International Tables Vol C Tables 4.2.6.8 and 6.1.1.4'
Co Co 0.3494 0.9721 'International Tables Vol C Tables 4.2.6.8 and 6.1.1.4'
N N 0.0061 0.0033 'International Tables Vol C Tables 4.2.6.8 and 6.1.1.4'
O O 0.0106 0.0060 'International Tables Vol C Tables 4.2.6.8 and 6.1.1.4'
loop_
_geom_angle_atom_site_label_1
_geom_angle_atom_site_label_2
_geom_angle_atom_site_label_3
_geom_angle
_geom_angle_site_symmetry_1
_geom_angle_site_symmetry_3
O2 Co1 N2 90.7(3) . 1_545
O2 Co1 N1 92.1(3) . .
O1W Co1 O2 151.4(2) . .
O1W Co1 N2 90.5(3) . 1_545
O1W Co1 O1 91.3(2) . .
O1W Co1 N1 87.9(3) . .
N2 Co1 N1 176.7(4) 1_545 .
O1 Co1 O2 60.1(2) . .
O1 Co1 N2 92.7(3) . 1_545
O1 Co1 N1 90.3(3) . .
O4 Co1 O2 108.2(2) 1_554 .
O4 Co1 O1W 100.5(2) 1_554 .
O4 Co1 N2 90.2(3) 1_554 1_545
O4 Co1 O1 167.9(2) 1_554 .
O4 Co1 N1 87.3(3) 1_554 .
C7 O2 Co1 86.3(4) . .
Co1 O1W H1WA 110.8 . .
Co1 O1W H1WB 109.9 . .
H1WA O1W H1WB 108.4 . .
H14A C14 H14B 107.9 . .
N2 C14 H14A 109.2 . .
N2 C14 H14B 109.2 . .
N2 C14 C13 112.2(7) . .
C13 C14 H14A 109.2 . .
C13 C14 H14B 109.2 . .
C14 N2 Co1 110.8(6) . 1_565
C14 N2 C10 107.2(7) . .
C14 N2 C12 106.1(7) . .
C10 N2 Co1 114.4(6) . 1_565
C10 N2 C12 106.6(8) . .
C12 N2 Co1 111.3(6) . 1_565
H11A C11 H11B 108.1 . .
C12 C11 H11A 109.6 . .
C12 C11 H11B 109.6 . .
N1 C11 H11A 109.6 . .
N1 C11 H11B 109.6 . .
N1 C11 C12 110.4(6) . .
N2 C10 H10A 109.4 . .
N2 C10 H10B 109.4 . .
N2 C10 C9 111.2(6) . .
H10A C10 H10B 108.0 . .
C9 C10 H10A 109.4 . .
C9 C10 H10B 109.4 . .
C10 C9 H9A 109.3 . .
C10 C9 H9B 109.3 . .
C10 C9 N1 111.5(6) . .
H9A C9 H9B 108.0 . .
N1 C9 H9A 109.3 . .
N1 C9 H9B 109.3 . .
N2 C12 C11 111.5(6) . .
N2 C12 H12A 109.3 . .
N2 C12 H12B 109.3 . .
C11 C12 H12A 109.3 . .
C11 C12 H12B 109.3 . .
H12A C12 H12B 108.0 . .
C7 O1 Co1 93.6(5) . .
C8 O4 Co1 147.9(6) . 1_556
C6 C1 C7 117.1(7) . .
C6 C1 C2 119.7(7) . .
C2 C1 C7 123.1(7) . .
C1 C6 H6 120.0 . .
C1 C6 C5 120.0(8) . .
C5 C6 H6 120.0 . .
O2 C7 C1 120.4(7) . .
O1 C7 O2 120.1(7) . .
O1 C7 C1 119.5(7) . .
C2 C3 H3 119.7 . .
C4 C3 H3 119.7 . .
C4 C3 C2 120.5(8) . .
C1 C2 H2 119.9 . .
C3 C2 C1 120.2(7) . .
C3 C2 H2 119.9 . .
O4 C8 C4 114.9(7) . .
O3 C8 O4 127.1(8) . .
O3 C8 C4 118.0(7) . .
C14 C13 H13A 109.4 . .
C14 C13 H13B 109.4 . .
H13A C13 H13B 108.0 . .
N1 C13 C14 111.2(6) . .
N1 C13 H13A 109.4 . .
N1 C13 H13B 109.4 . .
C3 C4 C8 119.5(7) . .
C3 C4 C5 118.6(8) . .
C5 C4 C8 121.8(8) . .
C11 N1 Co1 110.9(6) . .
C11 N1 C9 106.2(7) . .
C9 N1 Co1 113.1(5) . .
C13 N1 Co1 111.9(5) . .
C13 N1 C11 107.7(7) . .
C13 N1 C9 106.8(7) . .
C6 C5 C4 120.8(8) . .
C6 C5 H5 119.6 . .
C4 C5 H5 119.6 . .
loop_
_geom_bond_atom_site_label_1
_geom_bond_atom_site_label_2
_geom_bond_distance
_geom_bond_site_symmetry_2
Co1 O2 2.228(5) .
Co1 O1W 2.067(5) .
Co1 N2 2.233(8) 1_545
Co1 O1 2.106(6) .
Co1 O4 2.017(6) 1_554
Co1 N1 2.236(7) .
O2 C7 1.286(9) .
O1W H1WA 0.8658 .
O1W H1WB 0.8654 .
C14 H14A 0.9700 .
C14 H14B 0.9700 .
C14 N2 1.493(13) .
C14 C13 1.499(10) .
N2 Co1 2.233(8) 1_565
N2 C10 1.495(12) .
N2 C12 1.505(13) .
C11 H11A 0.9700 .
C11 H11B 0.9700 .
C11 C12 1.523(10) .
C11 N1 1.495(13) .
C10 H10A 0.9700 .
C10 H10B 0.9700 .
C10 C9 1.501(10) .
C9 H9A 0.9700 .
C9 H9B 0.9700 .
C9 N1 1.516(12) .
C12 H12A 0.9700 .
C12 H12B 0.9700 .
O1 C7 1.220(9) .
O4 Co1 2.017(6) 1_556
O4 C8 1.252(10) .
C1 C6 1.384(11) .
C1 C7 1.488(11) .
C1 C2 1.404(11) .
C6 H6 0.9300 .
C6 C5 1.391(11) .
C3 H3 0.9300 .
C3 C2 1.395(10) .
C3 C4 1.389(11) .
C2 H2 0.9300 .
O3 C8 1.227(9) .
C8 C4 1.497(11) .
C13 H13A 0.9700 .
C13 H13B 0.9700 .
C13 N1 1.490(12) .
C4 C5 1.416(12) .
C5 H5 0.9300 .
loop_
_geom_torsion_atom_site_label_1
_geom_torsion_atom_site_label_2
_geom_torsion_atom_site_label_3
_geom_torsion_atom_site_label_4
_geom_torsion
_geom_torsion_site_symmetry_1
_geom_torsion_site_symmetry_4
Co1 O2 C7 O1 -1.3(6) . .
Co1 O2 C7 C1 180.0(6) . .
Co1 N2 C10 C9 171.5(5) 1_565 .
Co1 N2 C12 C11 174.6(5) 1_565 .
Co1 O1 C7 O2 1.3(7) . .
Co1 O1 C7 C1 -179.9(6) . .
Co1 O4 C8 O3 19.7(15) 1_556 .
Co1 O4 C8 C4 -159.8(7) 1_556 .
C14 N2 C10 C9 48.2(9) . .
C14 N2 C12 C11 -64.8(9) . .
C14 C13 N1 Co1 173.0(5) . .
C14 C13 N1 C11 -64.9(9) . .
C14 C13 N1 C9 48.8(8) . .
N2 C14 C13 N1 13.3(8) . .
N2 C10 C9 N1 13.8(8) . .
C10 N2 C12 C11 49.2(9) . .
C10 C9 N1 Co1 171.9(5) . .
C10 C9 N1 C11 50.1(9) . .
C10 C9 N1 C13 -64.6(9) . .
C12 N2 C10 C9 -65.1(9) . .
C12 C11 N1 Co1 171.4(5) . .
C12 C11 N1 C9 -65.4(8) . .
C12 C11 N1 C13 48.7(9) . .
O4 C8 C4 C3 -177.0(7) . .
O4 C8 C4 C5 1.2(11) . .
C1 C6 C5 C4 -1.6(12) . .
C6 C1 C7 O2 -170.9(6) . .
C6 C1 C7 O1 10.4(10) . .
C6 C1 C2 C3 -3.2(10) . .
C7 C1 C6 C5 -176.9(7) . .
C7 C1 C2 C3 176.2(7) . .
C3 C4 C5 C6 1.3(11) . .
C2 C1 C6 C5 2.5(11) . .
C2 C1 C7 O2 9.8(10) . .
C2 C1 C7 O1 -169.0(7) . .
C2 C3 C4 C8 176.4(7) . .
C2 C3 C4 C5 -1.9(11) . .
O3 C8 C4 C3 3.4(11) . .
O3 C8 C4 C5 -178.3(7) . .
C8 C4 C5 C6 -177.0(7) . .
C13 C14 N2 Co1 170.0(5) . 1_565
C13 C14 N2 C10 -64.5(9) . .
C13 C14 N2 C12 49.2(9) . .
C4 C3 C2 C1 2.9(10) . .
N1 C11 C12 N2 14.5(8) . .
loop_
_smtbx_masks_void_nr
_smtbx_masks_void_average_x
_smtbx_masks_void_average_y
_smtbx_masks_void_average_z
_smtbx_masks_void_volume
_smtbx_masks_void_count_electrons
1 -0.764 0.466 0.497 132.7 48.5
