#------------------------------------------------------------------------------
#$Date: 2019-11-24 04:12:18 +0200 (Sun, 24 Nov 2019) $
#$Revision: 236652 $
#$URL: file:///home/coder/svn-repositories/cod/cif/8/00/03/8000363.cif $
#------------------------------------------------------------------------------
#
# This file is available in the Crystallography Open Database (COD),
# http://www.crystallography.net/
#
# All data on this site have been placed in the public domain by the
# contributors.
#
data_8000363
loop_
_publ_author_name
'Andrzejewski, Micha\/l'
'Katrusiak, Andrzej'
_publ_section_title
;
 Piezochromic Porous Metal-Organic Framework.
;
_journal_issue                   1
_journal_name_full               'The journal of physical chemistry letters'
_journal_page_first              279
_journal_page_last               284
_journal_paper_doi               10.1021/acs.jpclett.6b02458
_journal_volume                  8
_journal_year                    2017
_chemical_formula_moiety         'C14 H18 Co N2 O5'
_chemical_formula_sum            'C14 H18 Co N2 O5'
_chemical_formula_weight         353.23
_chemical_name_common            AMU1
_chemical_name_systematic
;
Co(1,4-benzenedicarboxylate)(1,4-diazabicyclo[2.2.2]octane)H2O
;
_space_group_crystal_system      triclinic
_space_group_IT_number           1
_space_group_name_Hall           'P 1'
_space_group_name_H-M_alt        'P 1'
_atom_sites_solution_hydrogens   mixed
_atom_sites_solution_primary     direct
_audit_creation_date             2016-07-12
_audit_creation_method
;
Olex2 1.2
(compiled 2016.02.19 svn.r3266 for OlexSys, GUI svn.r5155)
;
_cell_angle_alpha                89.505(5)
_cell_angle_beta                 95.443(6)
_cell_angle_gamma                93.326(6)
_cell_formula_units_Z            1
_cell_length_a                   6.0470(5)
_cell_length_b                   7.0945(5)
_cell_length_c                   10.6587(7)
_cell_measurement_reflns_used    3745
_cell_measurement_temperature    205(2)
_cell_measurement_theta_max      58.212
_cell_measurement_theta_min      5.752
_cell_volume                     454.43(6)
_computing_molecular_graphics    'Olex2 (Dolomanov et al., 2009)'
_computing_publication_material  'Olex2 (Dolomanov et al., 2009)'
_computing_structure_refinement  'ShelXL (Sheldrick, 2015)'
_computing_structure_solution    'ShelXS (Sheldrick, 2008)'
_diffrn_ambient_temperature      205(2)
_diffrn_measured_fraction_theta_full 0.914
_diffrn_measured_fraction_theta_max 0.821
_diffrn_measurement_device_type  'multiwire proportional'
_diffrn_measurement_method       'phi and omega scans'
_diffrn_radiation_monochromator  graphite
_diffrn_radiation_type           MoK\a
_diffrn_radiation_wavelength     0.71073
_diffrn_reflns_av_R_equivalents  0.0666
_diffrn_reflns_av_unetI/netI     0.1402
_diffrn_reflns_Laue_measured_fraction_full 0.914
_diffrn_reflns_Laue_measured_fraction_max 0.821
_diffrn_reflns_limit_h_max       7
_diffrn_reflns_limit_h_min       -8
_diffrn_reflns_limit_k_max       9
_diffrn_reflns_limit_k_min       -9
_diffrn_reflns_limit_l_max       13
_diffrn_reflns_limit_l_min       -13
_diffrn_reflns_number            6377
_diffrn_reflns_point_group_measured_fraction_full 0.914
_diffrn_reflns_point_group_measured_fraction_max 0.821
_diffrn_reflns_theta_full        26.000
_diffrn_reflns_theta_max         29.106
_diffrn_reflns_theta_min         2.876
_exptl_absorpt_coefficient_mu    0.965
_exptl_absorpt_correction_T_max  0.908
_exptl_absorpt_correction_T_min  0.891
_exptl_absorpt_correction_type   multi-scan
_exptl_absorpt_process_details
;
Data were collected and reduced by program CrysAlisPro, 
and SCALE3 ABSPACK was used for absorption correction
;
_exptl_crystal_colour            purple
_exptl_crystal_density_diffrn    1.291
_exptl_crystal_description       plate
_exptl_crystal_F_000             183
_exptl_crystal_size_max          0.3
_exptl_crystal_size_mid          0.1
_exptl_crystal_size_min          0.1
_refine_diff_density_max         0.614
_refine_diff_density_min         -0.453
_refine_diff_density_rms         0.094
_refine_ls_abs_structure_details
;
 Refined as a perfect inversion twin.
;
_refine_ls_abs_structure_Flack   0.5
_refine_ls_extinction_method     none
_refine_ls_goodness_of_fit_ref   0.983
_refine_ls_hydrogen_treatment    constr
_refine_ls_matrix_type           full
_refine_ls_number_parameters     200
_refine_ls_number_reflns         3745
_refine_ls_number_restraints     123
_refine_ls_restrained_S_all      0.972
_refine_ls_R_factor_all          0.0848
_refine_ls_R_factor_gt           0.0655
_refine_ls_shift/su_max          0.000
_refine_ls_shift/su_mean         0.000
_refine_ls_structure_factor_coef Fsqd
_refine_ls_weighting_details
'w=1/[\s^2^(Fo^2^)+(0.0785P)^2^] where P=(Fo^2^+2Fc^2^)/3'
_refine_ls_weighting_scheme      calc
_refine_ls_wR_factor_gt          0.1519
_refine_ls_wR_factor_ref         0.1603
_reflns_Friedel_coverage         1.000
_reflns_Friedel_fraction_full    0.914
_reflns_Friedel_fraction_max     0.821
_reflns_number_gt                2757
_reflns_number_total             3745
_reflns_threshold_expression     'I > 2\s(I)'
_cod_data_source_file            jz6b02458_si_004.cif
_cod_data_source_block           205K_P1
_cod_database_code               8000363
_shelx_space_group_comment
;
The symmetry employed for this shelxl refinement is uniquely defined
by the following loop, which should always be used as a source of
symmetry information in preference to the above space-group names.
They are only intended as comments.
;
_olex2_refinement_description
;
1. Fixed Uiso
 At 1.2 times of:
  All C(H) groups, All C(H,H) groups
 At 1.5 times of:
  All O(H,H) groups
2. Uiso/Uaniso restraints and constraints
Uanis(N1) \\sim Ueq, Uanis(C10) \\sim Ueq, Uanis(C12) \\sim Ueq, Uanis(C11)
\\sim Ueq, Uanis(C9) \\sim Ueq, Uanis(C13) \\sim Ueq, Uanis(N2) \\sim Ueq,
Uanis(C14) \\sim Ueq: with sigma of 0.001 and sigma for terminal atoms of 0.002
Uanis(O2) \\sim Ueq, Uanis(C6) \\sim Ueq, Uanis(C7) \\sim Ueq, Uanis(C1) \\sim
Ueq, Uanis(O3) \\sim Ueq, Uanis(C2) \\sim Ueq, Uanis(O1) \\sim Ueq, Uanis(O4)
\\sim Ueq, Uanis(C4) \\sim Ueq, Uanis(C3) \\sim Ueq, Uanis(C5) \\sim Ueq,
Uanis(C8) \\sim Ueq: with sigma of 0.001 and sigma for terminal atoms of 0.002
3.a Rotating group:
 O1W(H1WA,H1WB)
3.b Secondary CH2 refined with riding coordinates:
 C10(H10A,H10B), C12(H12A,H12B), C11(H11A,H11B), C9(H9A,H9B), C13(H13A,H13B),
 C14(H14A,H14B)
3.c Aromatic/amide H refined with riding coordinates:
 C6(H6), C2(H2), C3(H3), C5(H5)
;
_shelx_hkl_file
;
  -8  -1   0   21.41   14.72
  -8  -1   1    8.36   13.92
  -8  -1   2    3.43   13.93
  -8  -1   3    6.15   12.96
  -7  -4   0   15.52   15.10
  -7  -4   1    0.90   14.00
  -7  -4   2    6.81   14.68
  -7  -4   3    9.03   14.71
  -7  -3  -4    0.62   14.54
  -7  -3  -3   21.04   14.86
  -7  -3  -2   34.92   14.47
  -7  -3  -1   11.98   13.01
  -7  -3   0   58.02   14.19
  -7  -3   1   11.12   12.82
  -7  -3   2   19.89   13.22
  -7  -3   3   14.27   13.25
  -7  -3   4   12.05   12.66
  -7  -3   5   35.08   14.32
  -7  -3   6    1.19   13.62
  -7  -2  -5    4.44   15.20
  -7  -2  -4    5.98   14.67
  -7  -2  -3    3.48   12.52
  -7  -2  -2    4.64   11.81
  -7  -2  -1    4.16   11.07
  -7  -2   0   39.09    8.85
  -7  -2   1    6.57    8.20
  -7  -2   2    6.98    8.00
  -7  -2   3    1.29   11.67
  -7  -2   4    4.49   10.97
  -7  -2   5   16.68   11.93
  -7  -2   6    0.06   11.01
  -7  -1  -6   20.12   15.04
  -7  -1  -5    4.87   12.94
  -7  -1  -4   18.09   13.11
  -7  -1  -1   14.82   12.72
  -7  -1   0   60.27   13.21
  -7  -1   1   11.84   10.78
  -7  -1   2   14.36   10.52
  -7  -1   3    6.86   10.88
  -7  -1   4   22.78   11.25
  -7  -1   5   32.21   12.56
  -7  -1   6   16.40   11.42
  -7  -1   7   24.39   12.23
  -7   1  -3   24.24   14.01
  -7   1  -2    7.83    5.88
  -7   1  -1   14.89   11.87
  -7   1   0   43.00   12.28
  -7   1   1   28.29   13.42
  -7   1   2   30.98    8.33
  -7   1   3   10.81   13.70
  -7   1   4    4.33    4.58
  -7   1   5   24.09    8.78
  -7   1   6   24.97    9.37
  -7   1   7   17.55   11.36
  -7   2  -3   18.42   14.03
  -7   2  -2    2.83   13.34
  -7   2  -1   17.13   14.23
  -7   2   0   44.08   13.55
  -7   2   1   14.59    8.37
  -7   2   2   19.65    8.90
  -7   2   3    5.19    9.12
  -7   2   4    1.32    9.35
  -7   2   5    6.06    9.48
  -7   2   6   10.60   10.05
  -7   3  -2   15.27   14.27
  -7   3  -1   20.96   15.29
  -7   3   0   47.41   15.96
  -7   3   1   28.70    9.72
  -7   3   2   31.61    9.34
  -7   3   3   14.41    9.45
  -7   3   4   17.37   10.03
  -7   3   5   18.93   13.81
  -7   4   0   35.27   13.85
  -7   4   1   39.69   14.36
  -7   4   2   27.38   13.94
  -7   4   3   14.02   13.61
  -7   4   4   28.71   14.68
  -7   5   0    1.37   12.08
  -7   5   1    4.92   13.32
  -6  -5  -2    3.43   15.02
  -6  -5  -1   20.32   15.78
  -6  -5   0    2.57   14.42
  -6  -5   1    1.08   15.55
  -6  -5   2   12.36   14.27
  -6  -5   3   12.95   14.77
  -6  -5   4    7.44   14.06
  -6  -4  -4   62.94   17.35
  -6  -4  -3   39.09   15.38
  -6  -4  -2   21.19   13.72
  -6  -4  -1   32.24   14.67
  -6  -4   0   45.18   14.58
  -6  -4   1   48.69   15.04
  -6  -4   2   59.67   15.29
  -6  -4   3   26.33   13.20
  -6  -4   4   22.63   13.11
  -6  -4   5   12.01   13.69
  -6  -4   6   23.81   13.88
  -6  -3  -6   52.98   17.17
  -6  -3  -5   10.97   13.11
  -6  -3  -4   63.84   14.71
  -6  -3  -3   57.98   14.34
  -6  -3  -2   31.92   13.13
  -6  -3  -1   44.66   13.49
  -6  -3   0   56.40   13.66
  -6  -3   1   65.04   14.01
  -6  -3   2   78.45   13.93
  -6  -3   3   62.67   13.48
  -6  -3   4   57.61   13.25
  -6  -3   5   32.53   12.81
  -6  -3   6   28.17   13.01
  -6  -3   7   21.16   12.73
  -6  -3   8   20.68   13.85
  -6  -2  -7   32.17   16.09
  -6  -2  -6   19.04   15.14
  -6  -2  -5    8.80   13.00
  -6  -2  -4   50.65   12.83
  -6  -2  -3   36.26   12.38
  -6  -2  -2   13.59   10.46
  -6  -2  -1   22.79   10.83
  -6  -2   0   25.80    7.36
  -6  -2   1   27.78    7.46
  -6  -2   2   27.76   10.24
  -6  -2   3   54.03    8.06
  -6  -2   4   34.57    7.74
  -6  -2   5   19.71    7.43
  -6  -2   6   13.71    9.65
  -6  -2   7   14.45   11.63
  -6  -2   8    0.01   12.39
  -6  -2   9   22.70   13.49
  -6  -1  -8   39.56   16.31
  -6  -1  -7   62.54   14.49
  -6  -1  -6   39.34   12.89
  -6  -1  -5   25.65   12.16
  -6  -1  -4   79.51   14.32
  -6  -1  -3   63.82   11.43
  -6  -1  -2   61.31   10.81
  -6  -1  -1   74.38    8.41
  -6  -1   0   93.84   17.47
  -6  -1   1  105.08    8.47
  -6  -1   2   78.76    7.84
  -6  -1   3   95.68   10.24
  -6  -1   4   49.56    7.68
  -6  -1   5   31.24    6.99
  -6  -1   6   24.70    7.50
  -6  -1   7   44.30    8.03
  -6  -1   8   20.71    7.22
  -6  -1   9   37.53    9.57
  -6  -1  10   31.26    9.02
  -6   1  -3   42.27   10.78
  -6   1  -2   53.77   12.96
  -6   1  -1   54.77   12.96
  -6   1   0   61.93   11.16
  -6   1   1   84.69    8.52
  -6   1   2   81.88    8.03
  -6   1   3  100.11    9.82
  -6   1   4   44.03    8.10
  -6   1   5   45.95   11.19
  -6   1   6   19.26    9.45
  -6   1   7   46.62   13.67
  -6   1   8   13.83   14.10
  -6   1   9   24.08   11.34
  -6   2  -3   31.97   14.08
  -6   2  -2   81.25   14.82
  -6   2  -1   41.50    7.03
  -6   2   0   24.54   11.40
  -6   2   1   22.97    7.83
  -6   2   2   45.57    8.87
  -6   2   3   92.76   14.12
  -6   2   4   28.62    8.32
  -6   2   5   15.72    7.90
  -6   2   6   17.76    8.83
  -6   2   7   41.25    9.67
  -6   2   8   16.07    9.81
  -6   2   9   38.32   15.04
  -6   3  -4   72.79   14.81
  -6   3  -3   67.93   14.65
  -6   3  -2  128.47    9.60
  -6   3  -1   56.68    9.09
  -6   3   0   40.75    8.37
  -6   3   1   48.00    9.07
  -6   3   2   83.21   14.11
  -6   3   3  143.50   11.66
  -6   3   4   67.90   10.26
  -6   3   5   47.09   10.20
  -6   3   6   52.94   10.20
  -6   3   7   62.39   10.80
  -6   3   8   29.67   11.41
  -6   4  -4   22.85   16.02
  -6   4  -3   25.70   14.18
  -6   4  -2   98.90   10.91
  -6   4  -1   42.09    9.07
  -6   4   0   50.13    9.32
  -6   4   1   71.60   17.99
  -6   4   2   70.74   10.50
  -6   4   3   96.98   10.88
  -6   4   4   23.60    9.27
  -6   4   5   21.46    9.40
  -6   4   6   32.13    9.80
  -6   4   7   26.57   10.29
  -6   5  -4   10.06   15.95
  -6   5  -3   33.03   15.69
  -6   5  -2   73.52   11.02
  -6   5  -1    6.42    9.31
  -6   5   0    2.36    8.92
  -6   5   1    3.41    8.96
  -6   5   2   34.88    9.85
  -6   5   3   59.48   10.82
  -6   5   4   12.08   10.01
  -6   5   5   13.58    9.66
  -6   6  -2   85.44   16.39
  -6   6  -1   20.77   16.24
  -6   6   0   22.79   10.06
  -6   6   1   37.99   10.39
  -6   6   2   57.10   11.44
  -5  -6  -2   46.29   17.33
  -5  -6  -1   26.73   14.81
  -5  -6   0   26.86   15.21
  -5  -6   1   30.45   16.06
  -5  -6   2   56.33   17.11
  -5  -6   3   62.82   16.68
  -5  -6   4   20.47   15.85
  -5  -5  -5   15.00   15.11
  -5  -5  -4   22.09   14.34
  -5  -5  -3   34.53   13.59
  -5  -5  -2   97.19   15.38
  -5  -5  -1    5.64   12.63
  -5  -5   0    0.90   12.85
  -5  -5   1   11.99   13.02
  -5  -5   2   32.74   12.29
  -5  -5   3   76.76   16.14
  -5  -5   4   10.35   12.76
  -5  -5   5   40.58   15.63
  -5  -5   6   23.35   13.12
  -5  -5   7   30.37   14.60
  -5  -4  -6   20.48   13.31
  -5  -4  -5    5.06   13.55
  -5  -4  -4    6.53   12.02
  -5  -4  -3   15.60   12.02
  -5  -4  -2   90.42   15.05
  -5  -4  -1   13.26   11.83
  -5  -4   0   26.44   11.79
  -5  -4   1   24.69   12.08
  -5  -4   2   64.63   13.25
  -5  -4   3  101.69   13.47
  -5  -4   4    6.09   11.92
  -5  -4   5   29.57   11.90
  -5  -4   6   20.54   12.47
  -5  -4   7   50.66   13.77
  -5  -4   8    5.82   14.33
  -5  -3  -8   18.65   15.95
  -5  -3  -7   41.04   16.50
  -5  -3  -6   30.87   14.02
  -5  -3  -5   46.14   13.99
  -5  -3  -4   58.25   13.62
  -5  -3  -3  112.40   15.43
  -5  -3  -2  262.04   18.62
  -5  -3  -1   27.60   11.32
  -5  -3   0   33.98   10.93
  -5  -3   1   28.91    6.71
  -5  -3   2  120.56    8.42
  -5  -3   3  183.78   10.00
  -5  -3   4   55.58    6.76
  -5  -3   5   92.04   13.88
  -5  -3   6   91.10   14.00
  -5  -3   7   99.52   14.18
  -5  -3   8   29.27   12.73
  -5  -3   9   29.75   13.97
  -5  -3  10   49.61   16.01
  -5  -2  -8   24.40   15.42
  -5  -2  -7    8.19   13.08
  -5  -2  -6   10.68   12.45
  -5  -2  -5   12.85   11.18
  -5  -2  -4   25.63   11.52
  -5  -2  -3   50.62   11.66
  -5  -2  -2  226.49   16.38
  -5  -2  -1    7.41    6.26
  -5  -2   0   12.12    6.36
  -5  -2   1   12.69    6.00
  -5  -2   2   89.37    8.00
  -5  -2   3  142.29    8.18
  -5  -2   4   16.87    8.21
  -5  -2   5   49.07    7.71
  -5  -2   6   57.91    7.84
  -5  -2   7   56.68    8.19
  -5  -2   8   21.99    7.56
  -5  -2   9   15.65    7.89
  -5  -2  10    8.80   13.24
  -5  -2  11   43.21   15.27
  -5  -1  -9   46.80   15.61
  -5  -1  -8   66.13   13.94
  -5  -1  -7   56.37   13.58
  -5  -1  -6   19.11   10.90
  -5  -1  -5    6.09   10.19
  -5  -1  -4   17.64   10.67
  -5  -1  -3   24.44    9.16
  -5  -1  -2  243.59   13.83
  -5  -1  -1   12.85    5.49
  -5  -1   0   33.83    5.70
  -5  -1   1   30.22    5.97
  -5  -1   2   96.40    9.86
  -5  -1   3  108.66   11.16
  -5  -1   4    4.86    4.11
  -5  -1   5   21.62    8.52
  -5  -1   6   33.72    6.14
  -5  -1   7   45.85    7.64
  -5  -1   8   15.93    6.16
  -5  -1   9   25.79    7.36
  -5  -1  10   38.25    7.29
  -5  -1  11   52.29   10.36
  -5  -1  12   12.90   11.29
  -5   1 -10   18.02   10.30
  -5   1  -9   23.32   12.13
  -5   1  -8   44.26   10.71
  -5   1  -7   25.01    8.17
  -5   1  -6   13.12    6.82
  -5   1  -5    0.96    9.44
  -5   1  -4    1.61    7.91
  -5   1  -3   19.01    3.61
  -5   1  -2  146.08    8.46
  -5   1  -1   15.98    4.06
  -5   1   0   33.79    3.91
  -5   1   1   34.33    4.14
  -5   1   2   69.32    5.90
  -5   1   3   60.00    4.88
  -5   1   4    9.03    5.04
  -5   1   5   25.44   11.11
  -5   1   6   66.49    7.14
  -5   1   7   27.39    8.33
  -5   1   8   33.66    7.66
  -5   1   9   18.07    8.23
  -5   1  10   37.74   10.73
  -5   1  11   55.47   14.61
  -5   2  -9    4.38   12.31
  -5   2  -8    5.27   11.33
  -5   2  -7   23.70   10.71
  -5   2  -6    7.57    9.12
  -5   2  -5    2.18    8.57
  -5   2  -4   30.24    9.56
  -5   2  -3   62.15    5.05
  -5   2  -2  217.09    7.51
  -5   2  -1    0.28    4.03
  -5   2   0   21.31    4.21
  -5   2   1   25.66    6.78
  -5   2   2   45.16    7.57
  -5   2   3   54.09    7.80
  -5   2   4   20.49    7.53
  -5   2   5   61.53   13.43
  -5   2   6  121.53   13.49
  -5   2   7   44.21    9.84
  -5   2   8   50.34    9.71
  -5   2   9   38.97   10.43
  -5   2  10   44.72   21.95
  -5   3  -4   71.35    7.46
  -5   3  -3  122.86    9.30
  -5   3  -2  310.25   14.48
  -5   3  -1    3.96    6.55
  -5   3   0   53.99    8.01
  -5   3   1   52.60   12.28
  -5   3   2   78.61    8.77
  -5   3   3   99.95    9.86
  -5   3   4   72.26    9.44
  -5   3   5   96.17   10.09
  -5   3   6  185.47   16.47
  -5   3   7   57.77   10.10
  -5   3   8   59.56   11.26
  -5   3   9   44.83   10.28
  -5   3  10   39.66   11.74
  -5   4  -4    2.70    7.32
  -5   4  -3   12.71    7.62
  -5   4  -2  109.37   13.08
  -5   4  -1    0.54    6.79
  -5   4   0   39.13    8.87
  -5   4   1   47.74    8.45
  -5   4   2   41.07    8.41
  -5   4   3   22.59   14.81
  -5   4   4    4.80    8.24
  -5   4   5    8.79    8.69
  -5   4   6   49.34   10.12
  -5   4   7   30.35    9.91
  -5   4   8   24.41    9.66
  -5   4   9   28.80   10.43
  -5   5  -4   24.06   11.12
  -5   5  -3   50.99   13.00
  -5   5  -2   95.71   14.41
  -5   5  -1    2.61    7.77
  -5   5   0    6.56    7.60
  -5   5   1    6.12    8.16
  -5   5   2   12.49    8.99
  -5   5   3   28.64    9.20
  -5   5   4   27.73    9.31
  -5   5   5   45.78    9.43
  -5   5   6  117.34   22.02
  -5   5   7   30.06   10.33
  -5   5   8   22.84   14.54
  -5   6  -5    0.93   12.52
  -5   6  -4   12.02    9.17
  -5   6  -3   26.33    9.24
  -5   6  -2   66.64   10.67
  -5   6  -1    2.18    8.54
  -5   6   0   22.81    9.13
  -5   6   1   38.86    9.51
  -5   6   2   30.46    9.66
  -5   6   3   25.65   10.97
  -5   6   4   11.78    9.12
  -5   6   5   14.47    9.55
  -5   6   6   39.97   11.18
  -5   7  -4    4.70   16.80
  -5   7  -3   16.61    9.56
  -5   7  -2   42.81   10.87
  -5   7  -1    0.58    9.20
  -5   7   0   16.43    9.32
  -5   7   1   10.36    9.66
  -5   7   2   11.16    9.44
  -5   7   3   14.29   13.82
  -5   7   4    7.53   13.15
  -5   8   1    1.03   13.87
  -4  -7  -2   51.63   17.82
  -4  -7  -1    1.26   14.61
  -4  -7   0    9.16   14.81
  -4  -7   1    0.94   14.66
  -4  -7   2   25.94   15.84
  -4  -7   3   20.59   15.84
  -4  -6  -5    3.24   14.50
  -4  -6  -4    9.53   14.04
  -4  -6  -3   26.23   13.30
  -4  -6  -2   71.94   14.58
  -4  -6  -1    6.65   12.41
  -4  -6   0   33.72   12.73
  -4  -6   1   40.71   13.31
  -4  -6   2   36.38   14.07
  -4  -6   3   23.31   12.92
  -4  -6   4    3.79   12.75
  -4  -6   5   13.34   12.80
  -4  -6   6   38.20   10.47
  -4  -6   7   40.42   15.87
  -4  -6   8   33.23   15.81
  -4  -5  -7   16.88   14.34
  -4  -5  -6    2.43   14.06
  -4  -5  -5   24.75   15.11
  -4  -5  -4   49.34   15.11
  -4  -5  -3   79.72   14.03
  -4  -5  -2  135.82   16.58
  -4  -5  -1    1.99   12.04
  -4  -5   0    3.19   10.69
  -4  -5   1    7.56   12.01
  -4  -5   2   18.20   12.44
  -4  -5   3   39.50   13.18
  -4  -5   4   37.81   11.54
  -4  -5   5   60.19   13.48
  -4  -5   6   69.78   10.33
  -4  -5   7   33.68    9.31
  -4  -5   8   17.09    9.41
  -4  -5   9    7.58   12.44
  -4  -5  10    0.50   13.98
  -4  -4  -8   65.66   18.08
  -4  -4  -7   37.23   14.89
  -4  -4  -6   10.40   13.90
  -4  -4  -5    8.34   10.86
  -4  -4  -4    4.55   12.03
  -4  -4  -3   15.70   11.86
  -4  -4  -2   93.01   14.13
  -4  -4  -1    0.84    9.59
  -4  -4   0   29.29   11.34
  -4  -4   1   52.31   12.62
  -4  -4   2   39.81   11.53
  -4  -4   3   11.02   10.22
  -4  -4   4    6.60    9.25
  -4  -4   5    4.78    7.61
  -4  -4   6   30.77    8.20
  -4  -4   7   38.78    9.15
  -4  -4   8   38.86    9.38
  -4  -4   9   38.74    9.77
  -4  -4  10   26.97    9.91
  -4  -3  -9   77.59   16.87
  -4  -3  -8   66.51   15.79
  -4  -3  -7  136.40   17.95
  -4  -3  -6   19.43   12.38
  -4  -3  -5   57.00    7.17
  -4  -3  -4  126.35   15.32
  -4  -3  -3  127.32   13.53
  -4  -3  -2  273.95   17.42
  -4  -3  -1    8.68   10.04
  -4  -3   0  105.07   12.84
  -4  -3   1  107.44    6.59
  -4  -3   2   98.49    6.76
  -4  -3   3   78.09    6.27
  -4  -3   4   53.58    6.40
  -4  -3   5   97.95    5.71
  -4  -3   6  167.72    7.49
  -4  -3   7  102.10    6.54
  -4  -3   8   73.70    9.12
  -4  -3   9   39.78    9.73
  -4  -3  10   24.18   13.64
  -4  -3  11   19.57   13.82
  -4  -2 -11   19.36   14.90
  -4  -2 -10   11.89   10.11
  -4  -2  -9   37.98   10.14
  -4  -2  -8   45.81    8.74
  -4  -2  -7   75.35    9.03
  -4  -2  -6    7.09    6.87
  -4  -2  -5   31.48   11.81
  -4  -2  -4   74.89   11.58
  -4  -2  -3   49.00   18.91
  -4  -2  -2  184.67    6.39
  -4  -2  -1    2.08    5.30
  -4  -2   0   46.31    5.94
  -4  -2   1   43.80    7.18
  -4  -2   2   36.04    5.47
  -4  -2   3   33.76    5.70
  -4  -2   4   18.60    4.94
  -4  -2   5   50.77    6.48
  -4  -2   6  104.91    6.25
  -4  -2   7   88.89    7.25
  -4  -2   8   42.47    5.55
  -4  -2   9   22.31    7.73
  -4  -2  10    6.52   10.58
  -4  -2  11   22.16   10.62
  -4  -1 -11   21.38   14.43
  -4  -1 -10   26.56    9.08
  -4  -1  -9   89.66   21.87
  -4  -1  -8   82.59    9.79
  -4  -1  -7  127.74   14.21
  -4  -1  -6    2.76   10.21
  -4  -1  -5    6.35    9.85
  -4  -1  -4   23.67    8.98
  -4  -1  -3   42.23    5.18
  -4  -1  -2  164.18   10.93
  -4  -1  -1   12.15    4.59
  -4  -1   0   96.70    7.05
  -4  -1   1  111.67    6.32
  -4  -1   2   65.82    5.81
  -4  -1   3   29.84    8.21
  -4  -1   4    2.86    5.08
  -4  -1   5   10.32    5.16
  -4  -1   6   47.42    4.79
  -4  -1   7  123.25   19.60
  -4  -1   8   70.27   12.76
  -4  -1   9   35.94    8.87
  -4  -1  10    5.36    6.32
  -4  -1  11    5.28   10.61
  -4  -1  12   38.02   10.54
  -4  -1  13   20.39   13.52
  -4   1 -11   27.30   11.98
  -4   1 -10   19.78   12.36
  -4   1  -9   74.81   13.59
  -4   1  -8   64.40   10.69
  -4   1  -7   97.22   11.93
  -4   1  -6   13.28    9.34
  -4   1  -5    1.63    8.49
  -4   1  -4   21.73    8.43
  -4   1  -3   30.67    3.48
  -4   1  -2  100.49    4.65
  -4   1  -1   25.12    3.45
  -4   1   0   80.04    6.60
  -4   1   1   96.56    4.30
  -4   1   2   95.58    5.86
  -4   1   3   48.17    3.40
  -4   1   4    4.90    4.50
  -4   1   5   11.28    4.95
  -4   1   6   50.91    9.28
  -4   1   7  236.92   16.53
  -4   1   8   89.19   14.07
  -4   1   9   58.87   12.71
  -4   1  10   18.63   12.46
  -4   1  11   13.86   11.53
  -4   1  12   24.19   10.01
  -4   2 -11   28.51   14.55
  -4   2 -10    4.15   12.79
  -4   2  -9   48.19   13.56
  -4   2  -8   40.60   12.01
  -4   2  -7   87.62   12.10
  -4   2  -6   11.90    8.53
  -4   2  -5   37.85    8.98
  -4   2  -4   65.35    4.88
  -4   2  -3   96.63    5.74
  -4   2  -2  128.99   10.15
  -4   2  -1   32.50    5.32
  -4   2   0   67.63    3.70
  -4   2   1   59.41    5.61
  -4   2   2   58.60    3.43
  -4   2   3   45.18    3.62
  -4   2   4   38.32    3.11
  -4   2   5   38.51    7.56
  -4   2   6   72.17    8.76
  -4   2   7  188.00   16.01
  -4   2   8   37.83   11.85
  -4   2   9   18.06   12.02
  -4   2  10    1.63   13.28
  -4   2  11    0.26   14.53
  -4   3 -11   43.52   14.33
  -4   3 -10   17.96   11.85
  -4   3  -9   85.77   13.95
  -4   3  -8   85.70   12.36
  -4   3  -7  136.03   13.33
  -4   3  -6   31.10    9.62
  -4   3  -5   82.62    5.88
  -4   3  -4  126.20   17.86
  -4   3  -3  191.85    6.53
  -4   3  -2  201.62   10.47
  -4   3  -1  104.87    4.26
  -4   3   0  127.73    8.93
  -4   3   1  149.50    8.39
  -4   3   2  142.30   10.93
  -4   3   3  125.80    8.30
  -4   3   4   91.45   10.05
  -4   3   5   86.78    8.57
  -4   3   6  105.67   10.21
  -4   3   7  240.49   18.31
  -4   3   8   65.82    9.63
  -4   3   9   46.39   10.31
  -4   3  10    7.47    8.93
  -4   3  11   11.45   10.78
  -4   4  -5   15.13    9.58
  -4   4  -4   10.64    6.59
  -4   4  -3   50.55    8.06
  -4   4  -2   54.33    7.16
  -4   4  -1   42.37    7.25
  -4   4   0   56.10    7.05
  -4   4   1   85.79   19.52
  -4   4   2  123.78    8.99
  -4   4   3   38.84    8.03
  -4   4   4    3.06    6.76
  -4   4   5    5.72    8.16
  -4   4   6   21.34    7.44
  -4   4   7  124.11   11.89
  -4   4   8   32.46    8.37
  -4   4   9   36.58    9.98
  -4   4  10   13.38    9.72
  -4   5  -6   19.14   11.59
  -4   5  -5   42.61   11.63
  -4   5  -4   47.68    8.87
  -4   5  -3  101.48    8.83
  -4   5  -2   62.04    8.93
  -4   5  -1   24.33    7.03
  -4   5   0   21.88    7.38
  -4   5   1   33.53    7.25
  -4   5   2   31.79    7.32
  -4   5   3   31.64    7.69
  -4   5   4   27.62    8.36
  -4   5   5   37.86    8.39
  -4   5   6   43.39    9.35
  -4   5   7   95.10   11.28
  -4   5   8   10.99    9.07
  -4   5   9    5.20    9.58
  -4   6  -5   31.11   13.14
  -4   6  -4   20.03    8.36
  -4   6  -3   52.29    9.42
  -4   6  -2   44.86    8.20
  -4   6  -1   49.97    8.89
  -4   6   0   60.85    8.82
  -4   6   1   88.86   11.44
  -4   6   2  109.98   10.25
  -4   6   3   42.52   13.24
  -4   6   4   17.79    8.48
  -4   6   5   11.91    8.95
  -4   6   6   19.24    8.88
  -4   6   7   79.28   11.60
  -4   6   8   37.16   10.42
  -4   7  -5   22.59   13.91
  -4   7  -4   33.66    9.11
  -4   7  -3   43.33    9.35
  -4   7  -2   30.04    9.12
  -4   7  -1   20.39    8.41
  -4   7   0   27.54    9.13
  -4   7   1   26.67    9.01
  -4   7   2   34.00    9.22
  -4   7   3   27.61    9.03
  -4   7   4   20.05    8.48
  -4   7   5    3.92    8.96
  -4   7   6   17.85   14.02
  -4   7   7   52.62   16.57
  -4   8   2   12.48   11.92
  -4   8   3   10.81   11.41
  -4   8   4    9.69   12.63
  -4   8   5    1.06   13.41
  -3  -8  -1    6.80   15.63
  -3  -8   0    5.28   13.55
  -3  -8   1    0.00   15.02
  -3  -8   2   17.96   14.97
  -3  -7  -5   23.21   14.79
  -3  -7  -4   33.08   14.31
  -3  -7  -3   29.79   13.73
  -3  -7  -2   37.04   13.86
  -3  -7  -1   20.95   12.91
  -3  -7   0   30.67   13.15
  -3  -7   1   43.44   13.71
  -3  -7   2   32.89   14.75
  -3  -7   3   14.94   12.26
  -3  -7   4   14.01   11.56
  -3  -7   5    7.29    9.61
  -3  -7   6   23.09   10.12
  -3  -6  -7   64.55   16.64
  -3  -6  -6   19.23   13.54
  -3  -6  -5   59.36   15.91
  -3  -6  -4   59.42   14.76
  -3  -6  -3   44.75   12.99
  -3  -6  -2   35.35   13.66
  -3  -6  -1   56.91   14.87
  -3  -6   0   69.13   13.88
  -3  -6   1   99.46   14.71
  -3  -6   2   88.38   15.01
  -3  -6   3   51.19   12.80
  -3  -6   4   27.07    9.00
  -3  -6   5   15.56    8.93
  -3  -6   6   27.47   13.68
  -3  -6   7   87.53   11.85
  -3  -6   8   47.92   17.57
  -3  -6   9   24.13   16.61
  -3  -5  -9   18.08   15.38
  -3  -5  -8   23.20   15.30
  -3  -5  -7   57.38   15.29
  -3  -5  -6   18.78   13.37
  -3  -5  -5   81.88   14.95
  -3  -5  -4   73.18   14.76
  -3  -5  -3   58.68   12.98
  -3  -5  -2   44.59   13.10
  -3  -5  -1   12.85   10.35
  -3  -5   0   46.98   11.21
  -3  -5   1   40.18   11.26
  -3  -5   2   32.97   10.21
  -3  -5   3   26.52    7.88
  -3  -5   4   41.29    8.09
  -3  -5   5   21.24    8.34
  -3  -5   6   17.51    8.68
  -3  -5   7  100.59   10.59
  -3  -5   8    4.71    8.92
  -3  -5   9    4.41    8.92
  -3  -5  10    3.37   15.34
  -3  -5  11    0.87   15.17
  -3  -4 -10   20.78   15.98
  -3  -4  -9   80.62   16.73
  -3  -4  -8   72.96   13.05
  -3  -4  -7   65.94   14.36
  -3  -4  -6   51.98    7.84
  -3  -4  -5   59.95    7.72
  -3  -4  -4   67.44    6.43
  -3  -4  -3   66.58    5.73
  -3  -4  -2   65.70    3.82
  -3  -4  -1  101.37   13.30
  -3  -4   0  132.40   12.12
  -3  -4   1  164.97   13.47
  -3  -4   2  255.86   16.28
  -3  -4   3   74.42    8.46
  -3  -4   4   32.50    7.14
  -3  -4   5   13.43    6.85
  -3  -4   6   10.52    6.66
  -3  -4   7  205.41   11.98
  -3  -4   8   47.72    8.63
  -3  -4   9   62.08    9.53
  -3  -4  10   25.61    9.42
  -3  -4  11   27.99   12.91
  -3  -4  12   52.23   15.93
  -3  -3 -12   27.08   15.77
  -3  -3 -11   44.53   14.99
  -3  -3 -10   20.31   10.18
  -3  -3  -9   82.31   19.98
  -3  -3  -8   73.06    9.93
  -3  -3  -7  106.24   12.62
  -3  -3  -6  116.27   15.30
  -3  -3  -5  160.73    8.80
  -3  -3  -4  185.57   15.61
  -3  -3  -3  184.42    4.83
  -3  -3  -2  166.61    4.82
  -3  -3  -1  175.65    8.29
  -3  -3   0  204.78   14.45
  -3  -3   1  240.68    7.10
  -3  -3   2  389.56    8.61
  -3  -3   3  196.63    5.78
  -3  -3   4  115.02    5.21
  -3  -3   5   79.02    5.37
  -3  -3   6   39.01    5.08
  -3  -3   7  346.55   10.29
  -3  -3   8   54.08    6.58
  -3  -3   9   51.16    6.26
  -3  -3  10   24.17   10.96
  -3  -3  11   31.51   12.57
  -3  -2 -12   17.82   15.36
  -3  -2 -11   38.11   10.86
  -3  -2 -10   15.56    9.36
  -3  -2  -9   52.39    9.55
  -3  -2  -8   31.62    8.59
  -3  -2  -7   76.82    9.15
  -3  -2  -6   73.85    7.54
  -3  -2  -5  101.35    7.52
  -3  -2  -4  132.49    7.56
  -3  -2  -3  100.00    8.15
  -3  -2  -2   89.65    3.96
  -3  -2  -1   94.89   11.72
  -3  -2   0  104.52    5.15
  -3  -2   1   98.67    6.89
  -3  -2   2  333.41    8.44
  -3  -2   3   92.21    4.81
  -3  -2   4   33.57    4.08
  -3  -2   5   22.47    4.20
  -3  -2   6    4.15    3.97
  -3  -2   7  267.57   10.26
  -3  -2   8   24.77    5.76
  -3  -2   9   31.00    6.99
  -3  -2  10   14.18   11.52
  -3  -2  11   23.53    6.30
  -3  -2  12   32.01   12.93
  -3  -2  13   11.35    9.45
  -3  -1 -12   11.69   14.13
  -3  -1 -11   27.47    9.57
  -3  -1 -10   23.66    9.15
  -3  -1  -9   79.00    9.06
  -3  -1  -8  158.22   28.95
  -3  -1  -7   66.48    8.02
  -3  -1  -6   93.79   16.42
  -3  -1  -5   92.50    7.19
  -3  -1  -4  138.40    9.98
  -3  -1  -3  126.86    9.96
  -3  -1  -2  151.57   11.76
  -3  -1  -1  157.56    6.94
  -3  -1   0  237.89   12.63
  -3  -1   1  341.14   13.68
  -3  -1   2  906.07   23.56
  -3  -1   3  178.49    6.92
  -3  -1   4   41.53    3.96
  -3  -1   5   28.29    4.41
  -3  -1   6    7.85    4.27
  -3  -1   7  381.03   28.31
  -3  -1   8   88.65   21.05
  -3  -1   9   77.53   17.39
  -3  -1  10   45.28   27.08
  -3  -1  11   63.82   13.72
  -3  -1  12   79.94   15.91
  -3  -1  13   19.47   14.00
  -3   1 -11   20.64    7.89
  -3   1 -10   14.60    6.69
  -3   1  -9   89.24   10.21
  -3   1  -8   65.51   11.44
  -3   1  -7   65.20   10.34
  -3   1  -6   78.06    9.10
  -3   1  -5   88.79    6.58
  -3   1  -4  202.30    9.59
  -3   1  -3  114.94    5.86
  -3   1  -2  119.11   15.95
  -3   1  -1  111.90    3.68
  -3   1   0  266.16    5.70
  -3   1   1  314.82    7.31
  -3   1   2  904.57   52.32
  -3   1   3  191.73   13.46
  -3   1   4   37.74    4.31
  -3   1   5   27.25    8.56
  -3   1   6   22.04   10.89
  -3   1   7  237.86   93.52
  -3   1   8   80.40    5.57
  -3   1   9   51.09    8.65
  -3   1  10   56.85   11.64
  -3   1  11   24.78   10.25
  -3   1  12   14.39    6.44
  -3   2 -11    8.43   12.59
  -3   2 -10   18.31   12.02
  -3   2  -9   20.70   11.55
  -3   2  -8   58.34   11.12
  -3   2  -7   39.49   10.31
  -3   2  -6   60.15    9.90
  -3   2  -5   72.09    5.08
  -3   2  -4  226.38    8.46
  -3   2  -3   91.93    4.58
  -3   2  -2   87.08    4.18
  -3   2  -1   63.49    6.40
  -3   2   0   94.68    3.78
  -3   2   1   95.68    6.56
  -3   2   2  489.23   11.99
  -3   2   3   94.94    4.07
  -3   2   4   39.25    5.65
  -3   2   5   51.54    6.16
  -3   2   6   39.09    9.95
  -3   2   7  248.10   16.80
  -3   2   8   39.54   10.94
  -3   2   9   19.75   12.09
  -3   2  10   38.55   13.95
  -3   2  11   28.34   13.50
  -3   2  12   32.03   16.99
  -3   2  13   51.70   15.27
  -3   3 -11   12.34   12.21
  -3   3 -10   35.00   12.39
  -3   3  -9   65.31   12.79
  -3   3  -8   80.94   12.12
  -3   3  -7   67.43   10.62
  -3   3  -6   95.90   10.07
  -3   3  -5  152.17   13.91
  -3   3  -4  356.10   13.40
  -3   3  -3  166.14    6.80
  -3   3  -2  190.28    5.79
  -3   3  -1  119.26    3.14
  -3   3   0  249.25    9.75
  -3   3   1  232.74   38.41
  -3   3   2  618.67   32.25
  -3   3   3  200.18   18.37
  -3   3   4  137.98    5.33
  -3   3   5  109.09    5.87
  -3   3   6   97.55    9.72
  -3   3   7  245.03   11.51
  -3   3   8   84.09   11.15
  -3   3   9   51.17    9.35
  -3   3  10   82.05   10.45
  -3   3  11   49.89   10.19
  -3   3  12   51.64   15.11
  -3   4 -11    8.08   12.38
  -3   4 -10   41.66   13.04
  -3   4  -9   81.64   13.10
  -3   4  -8   50.82   10.99
  -3   4  -7   27.53    9.06
  -3   4  -6   49.51    9.78
  -3   4  -5   74.88    6.24
  -3   4  -4  164.27   10.37
  -3   4  -3   67.59    4.80
  -3   4  -2  111.12    7.66
  -3   4  -1   62.42    7.59
  -3   4   0  203.59   18.64
  -3   4   1  178.04   10.72
  -3   4   2  416.64   44.53
  -3   4   3  128.35    4.69
  -3   4   4   72.87    7.95
  -3   4   5   42.00    7.03
  -3   4   6   41.83   11.19
  -3   4   7  132.85   10.95
  -3   4   8   79.06   10.25
  -3   4   9   66.03    9.31
  -3   4  10   87.70   11.83
  -3   4  11   47.40   18.34
  -3   4  12   34.53   15.36
  -3   5  -9   22.23   10.88
  -3   5  -8   51.63   11.31
  -3   5  -7   19.79    8.92
  -3   5  -6   16.45    8.13
  -3   5  -5   42.10    6.43
  -3   5  -4  125.63    9.14
  -3   5  -3   11.64    6.49
  -3   5  -2   14.97    6.30
  -3   5  -1    7.84    6.11
  -3   5   0   32.14    7.11
  -3   5   1   24.59    6.51
  -3   5   2   90.62    7.90
  -3   5   3   33.52    7.00
  -3   5   4   45.57    7.49
  -3   5   5   25.24    7.50
  -3   5   6   37.85   10.60
  -3   5   7   53.66    9.11
  -3   5   8   19.59    8.17
  -3   5   9    5.05    8.66
  -3   5  10   11.64    9.83
  -3   5  11    4.53   14.29
  -3   6  -5   64.26   13.69
  -3   6  -4  103.88    9.43
  -3   6  -3   47.94    7.85
  -3   6  -2   74.58    8.44
  -3   6  -1   68.90    8.35
  -3   6   0   93.23    9.15
  -3   6   1  100.92    8.44
  -3   6   2  184.52   10.73
  -3   6   3   94.99   21.33
  -3   6   4   97.67    9.74
  -3   6   5   29.83    8.52
  -3   6   6   54.02    9.50
  -3   6   7   96.13   11.18
  -3   6   8   74.63   10.33
  -3   6   9   50.35   10.53
  -3   6  10   70.04   16.93
  -3   7  -5   22.30   14.69
  -3   7  -4   56.97   14.81
  -3   7  -3   14.81    7.67
  -3   7  -2   45.18    8.40
  -3   7  -1   28.67    7.93
  -3   7   0   19.52    7.37
  -3   7   1   35.05    8.33
  -3   7   2   86.64   18.10
  -3   7   3   52.36    8.89
  -3   7   4   46.20    8.54
  -3   7   5    9.32    8.47
  -3   7   6   41.01   10.21
  -3   7   7   44.90   10.15
  -3   7   8   32.55   10.45
  -3   8  -3    1.29   13.07
  -3   8  -2    8.09   12.95
  -3   8  -1   18.21   14.92
  -3   8   0    2.76   13.37
  -3   8   1   19.86   14.24
  -3   8   2   22.33   14.60
  -3   8   3   24.93   14.37
  -3   8   4    7.85   12.24
  -3   8   5    1.01   11.04
  -3   8   6   15.00   13.07
  -3   8   7   12.36   13.80
  -2  -8  -5    1.19   15.31
  -2  -8  -4    9.22   14.91
  -2  -8  -3    0.37   14.27
  -2  -8  -2    0.47   14.06
  -2  -8  -1    2.12   13.89
  -2  -8   0    3.47   13.39
  -2  -8   1    2.85   13.05
  -2  -8   2    9.72   13.87
  -2  -8   3    7.39   12.44
  -2  -8   4   10.34    9.79
  -2  -8   5   14.55   13.85
  -2  -7  -7   10.11   13.70
  -2  -7  -6   30.48   15.33
  -2  -7  -5   38.57   15.76
  -2  -7  -4   79.56   15.42
  -2  -7  -3   26.96   12.65
  -2  -7  -2   17.72   12.95
  -2  -7  -1   28.28   12.86
  -2  -7   0   41.57   13.92
  -2  -7   1   39.63   12.91
  -2  -7   2   86.43   14.40
  -2  -7   3   39.71    9.41
  -2  -7   4   27.85    8.75
  -2  -7   5   26.46    9.16
  -2  -7   6   15.43    9.61
  -2  -7   7   65.57   11.59
  -2  -6  -9   40.63   15.49
  -2  -6  -8   21.37   14.00
  -2  -6  -7   20.57   13.56
  -2  -6  -6   74.07   14.59
  -2  -6  -5   66.81   14.81
  -2  -6  -4  137.72   16.27
  -2  -6  -3   52.82   12.72
  -2  -6  -2   47.86   12.98
  -2  -6  -1   55.33   12.88
  -2  -6   0  109.32   14.97
  -2  -6   1  106.09   13.35
  -2  -6   2  191.21   13.68
  -2  -6   3   90.23    9.63
  -2  -6   4   64.76    9.57
  -2  -6   5   61.86    8.83
  -2  -6   6   38.58    9.13
  -2  -6   7  131.02   11.57
  -2  -6   8   34.97   10.59
  -2  -6   9   32.40   10.22
  -2  -5 -10   15.77   10.97
  -2  -5  -9   14.71   10.09
  -2  -5  -8   13.76    9.35
  -2  -5  -7   12.84    7.95
  -2  -5  -6   19.40    7.49
  -2  -5  -5   38.54    9.83
  -2  -5  -4  101.68   12.99
  -2  -5  -3   22.66   10.79
  -2  -5  -2    2.42   10.06
  -2  -5  -1   16.21   10.30
  -2  -5   0   14.82   10.01
  -2  -5   1    8.31    4.13
  -2  -5   2   91.53   10.73
  -2  -5   3   20.73    7.00
  -2  -5   4   45.35   14.20
  -2  -5   5   58.31    7.88
  -2  -5   6   60.51    9.07
  -2  -5   7   64.83    9.30
  -2  -5   8    3.70    8.00
  -2  -5   9    3.62    8.99
  -2  -5  10   11.08    8.78
  -2  -5  11   15.73   15.04
  -2  -4 -12    6.34   15.90
  -2  -4 -11    7.86   13.20
  -2  -4 -10   48.38   18.55
  -2  -4  -9   67.82   10.28
  -2  -4  -8   17.49    8.48
  -2  -4  -7   15.65    9.17
  -2  -4  -6   57.86    8.41
  -2  -4  -5  110.93   11.93
  -2  -4  -4  244.52    9.78
  -2  -4  -3   72.48   10.61
  -2  -4  -2   89.59   11.80
  -2  -4  -1   50.13    9.91
  -2  -4   0  246.36   15.42
  -2  -4   1  175.38   12.15
  -2  -4   2  377.87    7.63
  -2  -4   3  115.87    5.49
  -2  -4   4   78.86    5.00
  -2  -4   5   92.08    4.49
  -2  -4   6   59.09    3.97
  -2  -4   7  144.55    8.04
  -2  -4   8   52.75    6.36
  -2  -4   9   51.74    6.67
  -2  -4  10   78.85    9.29
  -2  -4  11   64.46   15.19
  -2  -4  12   39.50   13.97
  -2  -3 -12   26.71   16.42
  -2  -3 -11   27.34   10.38
  -2  -3 -10   67.91   10.55
  -2  -3  -9   82.04   10.72
  -2  -3  -8   17.97    7.89
  -2  -3  -7   43.61    7.94
  -2  -3  -6  132.14   28.09
  -2  -3  -5  192.92    9.80
  -2  -3  -4  443.83   12.55
  -2  -3  -3   73.26    4.98
  -2  -3  -2   86.19    4.06
  -2  -3  -1   28.66    3.85
  -2  -3   0  255.30   11.25
  -2  -3   1  136.99   12.35
  -2  -3   2  438.89   14.64
  -2  -3   3  152.27    4.22
  -2  -3   4  191.93    5.85
  -2  -3   5  219.34    4.93
  -2  -3   6  168.00   15.27
  -2  -3   7  174.79    8.88
  -2  -3   8   54.17    6.72
  -2  -3   9   58.92    8.54
  -2  -3  10   92.96    9.12
  -2  -3  11   80.81    9.72
  -2  -3  12   67.64   16.11
  -2  -3  13   42.36   10.68
  -2  -2 -12    8.97   10.92
  -2  -2 -11    9.88    9.22
  -2  -2 -10   45.96    9.73
  -2  -2  -9   68.45    9.26
  -2  -2  -8   26.51   13.39
  -2  -2  -7   17.53   10.30
  -2  -2  -6   14.44    6.43
  -2  -2  -5   97.22   13.65
  -2  -2  -4  335.35   18.09
  -2  -2  -3    9.83    2.31
  -2  -2  -2   35.34    6.68
  -2  -2  -1    7.17    2.33
  -2  -2   0  162.70    7.45
  -2  -2   1   77.89    3.76
  -2  -2   2  288.56    5.73
  -2  -2   3   51.35    3.95
  -2  -2   4   82.12    3.93
  -2  -2   5  134.42   21.47
  -2  -2   6  109.27    6.19
  -2  -2   7   67.48    6.72
  -2  -2   8   37.59    7.07
  -2  -2   9   44.29    6.98
  -2  -2  10   52.77    8.34
  -2  -2  11   51.89    9.63
  -2  -2  12   51.60    9.63
  -2  -2  13   17.72    9.22
  -2  -1 -12   35.08   14.25
  -2  -1 -11   20.10   11.03
  -2  -1 -10   72.36    8.92
  -2  -1  -9  223.93   12.66
  -2  -1  -8    5.40    7.12
  -2  -1  -7   15.09    4.87
  -2  -1  -6   46.41    2.94
  -2  -1  -5  216.88    7.14
  -2  -1  -4  574.41   35.26
  -2  -1  -3   24.86   12.19
  -2  -1  -2  125.38    8.95
  -2  -1  -1  132.98    9.74
  -2  -1   0  532.51    6.27
  -2  -1   1  412.96    7.23
  -2  -1   2  561.56   23.94
  -2  -1   3  173.15    6.42
  -2  -1   4  202.14    7.64
  -2  -1   5  164.13    5.56
  -2  -1   6  138.22   19.71
  -2  -1   7  124.33   11.14
  -2  -1   8   79.99   10.04
  -2  -1   9   82.11   11.65
  -2  -1  10   82.24   12.87
  -2  -1  11   60.59    8.79
  -2  -1  12   48.77   12.70
  -2  -1  13   32.77   10.75
  -2   1 -12   26.90   12.52
  -2   1 -11   29.00    7.42
  -2   1 -10   59.27   10.34
  -2   1  -9  157.45   19.55
  -2   1  -8    3.57    6.76
  -2   1  -7   14.05    7.65
  -2   1  -6   49.04    3.65
  -2   1  -5  287.18   30.78
  -2   1  -4  601.70   64.85
  -2   1  -3   23.14    2.23
  -2   1  -2  133.83    6.77
  -2   1  -1  135.72   15.36
  -2   1   0  322.23    8.49
  -2   1   1  312.78   10.21
  -2   1   2  365.08   19.97
  -2   1   3  184.15   16.49
  -2   1   4  210.06    8.58
  -2   1   5   96.77    8.90
  -2   1   6   74.13    9.83
  -2   1   7  115.22   11.40
  -2   1   8   80.26   11.27
  -2   1   9  118.80   13.51
  -2   1  10    4.62   12.61
  -2   1  11   42.13    7.18
  -2   1  12   78.84   17.15
  -2   1  13   40.30   12.21
  -2   2 -12   10.91   10.04
  -2   2 -11   14.75    9.00
  -2   2 -10   33.97    9.26
  -2   2  -9  138.38   10.17
  -2   2  -8   19.31    7.58
  -2   2  -7    8.38    6.15
  -2   2  -6   13.83    8.29
  -2   2  -5  105.54   10.42
  -2   2  -4  219.76    6.91
  -2   2  -3   32.05    3.19
  -2   2  -2   56.95    3.36
  -2   2  -1   27.29    2.56
  -2   2   0   51.76    4.40
  -2   2   1   77.26    5.61
  -2   2   2  129.15    4.35
  -2   2   3   78.95    4.98
  -2   2   4   90.85    2.15
  -2   2   5  129.59   18.20
  -2   2   6  142.55   10.73
  -2   2   7  100.43   12.12
  -2   2   8   39.77   10.71
  -2   2   9   36.27   11.51
  -2   2  10   23.85   12.63
  -2   2  11   65.78   15.00
  -2   2  12   70.14   16.23
  -2   2  13   58.66   15.04
  -2   3 -12   11.92   14.02
  -2   3 -11   38.27   12.93
  -2   3 -10   90.61   13.56
  -2   3  -9  190.31   16.65
  -2   3  -8    1.88    9.06
  -2   3  -7   56.16   10.21
  -2   3  -6   72.29    9.38
  -2   3  -5  197.46   10.60
  -2   3  -4  308.56   18.44
  -2   3  -3  108.31    4.89
  -2   3  -2  136.88    5.02
  -2   3  -1  111.30    8.30
  -2   3   0  102.66    6.33
  -2   3   1  134.59    3.30
  -2   3   2  190.05    4.74
  -2   3   3  163.80   11.23
  -2   3   4  191.27    5.00
  -2   3   5  248.03    8.73
  -2   3   6  211.84    6.88
  -2   3   7  165.40    7.75
  -2   3   8   66.60    9.43
  -2   3   9   68.92    8.32
  -2   3  10   60.32   22.75
  -2   3  11   91.87   10.59
  -2   3  12   79.98   11.39
  -2   3  13   62.68   15.61
  -2   4 -11   25.40   13.77
  -2   4 -10   68.15   13.37
  -2   4  -9  111.57   13.82
  -2   4  -8    3.91    9.15
  -2   4  -7   26.84    8.86
  -2   4  -6   35.99    8.73
  -2   4  -5  165.60   11.62
  -2   4  -4  255.70    8.32
  -2   4  -3   75.98    5.25
  -2   4  -2   85.93    6.55
  -2   4  -1   78.86    6.74
  -2   4   0   98.15    6.35
  -2   4   1  145.76    4.79
  -2   4   2  156.62   10.76
  -2   4   3  133.38    5.55
  -2   4   4  129.29   13.88
  -2   4   5   91.64    8.15
  -2   4   6   91.94    8.02
  -2   4   7   68.18    8.78
  -2   4   8   36.21    7.86
  -2   4   9   48.81    8.81
  -2   4  10   33.81    8.86
  -2   4  11   54.64   10.31
  -2   4  12   62.84   14.75
  -2   5 -11   13.23   14.03
  -2   5 -10   26.21   13.12
  -2   5  -9   67.20   13.03
  -2   5  -8    1.57    9.82
  -2   5  -7   17.30    9.11
  -2   5  -6    7.99    8.32
  -2   5  -5   16.00    5.66
  -2   5  -4   37.45   11.21
  -2   5  -3   33.32    6.65
  -2   5  -2    2.43    5.40
  -2   5  -1   12.83    5.36
  -2   5   0    5.90    5.49
  -2   5   1   22.02    3.46
  -2   5   2   27.89    4.00
  -2   5   3   13.88    5.63
  -2   5   4   13.47    6.40
  -2   5   5  158.34   10.13
  -2   5   6   54.80    8.11
  -2   5   7   42.64    7.68
  -2   5   8   11.03    7.47
  -2   5   9    9.18    8.05
  -2   5  10    4.16    8.70
  -2   5  11   26.52    9.98
  -2   6 -10   38.20   13.04
  -2   6  -4  125.08   13.81
  -2   6  -3   79.02    7.84
  -2   6  -2   56.93    6.58
  -2   6  -1   60.68    8.60
  -2   6   0   66.61    6.95
  -2   6   1   74.40    7.60
  -2   6   2   62.55    7.14
  -2   6   3   68.13    8.11
  -2   6   4   74.83    8.18
  -2   6   5   85.66    8.75
  -2   6   6   92.30    9.12
  -2   6   7   49.38    8.84
  -2   6   8   28.33    8.88
  -2   6   9   33.58    9.55
  -2   6  10   22.30    9.88
  -2   6  11   51.38   14.54
  -2   7  -4   41.77   13.79
  -2   7  -3   33.30   13.57
  -2   7  -2   27.40   12.77
  -2   7  -1   26.95    6.53
  -2   7   0   31.97    6.90
  -2   7   1   47.01    7.05
  -2   7   2   34.21    7.32
  -2   7   3   29.59    7.16
  -2   7   4   23.30    7.95
  -2   7   5   47.11    8.45
  -2   7   6   43.46    9.07
  -2   7   7   17.03   13.07
  -2   7   8    9.21    8.97
  -2   7   9   10.45    9.40
  -2   8  -4    7.60   14.30
  -2   8  -3   20.56   14.26
  -2   8  -2    0.74   13.97
  -2   8  -1    5.65   12.42
  -2   8   0   21.66   13.88
  -2   8   1   20.86   11.84
  -2   8   2    8.14   11.94
  -2   8   3    8.87   12.85
  -2   8   4    1.71   13.30
  -2   8   5   22.72   14.63
  -2   8   6   11.51   14.11
  -2   8   7    2.33   13.75
  -1  -9  -4   58.48   16.97
  -1  -9  -3    0.53   13.69
  -1  -9  -2   18.97   14.01
  -1  -9  -1    7.94   14.38
  -1  -9   0    9.72   13.78
  -1  -9   1    1.81   13.76
  -1  -9   2   17.25   14.31
  -1  -9   3   11.00   14.18
  -1  -9   4   20.47   13.96
  -1  -8  -7    0.18   13.45
  -1  -8  -6    1.32    9.57
  -1  -8  -5    2.99   14.23
  -1  -8  -4   16.05   13.09
  -1  -8  -3    9.54   13.04
  -1  -8  -2    4.21   12.82
  -1  -8  -1    2.75   12.26
  -1  -8   0   13.19   13.12
  -1  -8   1    5.33   12.13
  -1  -8   2    9.54    8.80
  -1  -8   3    3.36    8.79
  -1  -8   4   11.07    9.18
  -1  -8   5   26.86   10.07
  -1  -8   6   23.74   13.03
  -1  -8   7    0.15   13.53
  -1  -7  -9   33.88   16.44
  -1  -7  -8    0.96   13.19
  -1  -7  -7   11.40   12.19
  -1  -7  -6   20.94    9.46
  -1  -7  -5   50.35   13.82
  -1  -7  -4   66.01   13.77
  -1  -7  -3   18.11   11.29
  -1  -7  -2   33.80   11.55
  -1  -7  -1   28.91   11.65
  -1  -7   0   43.20   12.08
  -1  -7   1   28.84    8.64
  -1  -7   2   36.95   17.38
  -1  -7   3   10.34    7.47
  -1  -7   4   24.39    8.77
  -1  -7   5   54.40    9.31
  -1  -7   6   55.56   10.22
  -1  -7   7   10.37    9.44
  -1  -7   8   16.22   10.59
  -1  -6 -10   52.30   10.70
  -1  -6  -9   52.18   11.81
  -1  -6  -8    1.68   12.63
  -1  -6  -7   26.55   12.50
  -1  -6  -6   61.24    9.44
  -1  -6  -5  128.04   16.01
  -1  -6  -4  164.22   15.13
  -1  -6  -3   33.63   11.21
  -1  -6  -2   56.42   11.31
  -1  -6  -1   59.41   11.26
  -1  -6   0   53.47   10.82
  -1  -6   1   50.05    8.30
  -1  -6   2   54.25    7.83
  -1  -6   3   41.12    7.67
  -1  -6   4   84.21    8.48
  -1  -6   5   88.99   11.06
  -1  -6   6   77.85    9.82
  -1  -6   7   24.95    8.81
  -1  -6   8   19.15    9.29
  -1  -6   9   25.96    9.75
  -1  -6  10   21.00   12.54
  -1  -5 -11   20.39   11.71
  -1  -5 -10   54.49    8.72
  -1  -5  -9  106.80   20.66
  -1  -5  -8    2.29   11.58
  -1  -5  -7   14.39   11.14
  -1  -5  -6   25.23   10.76
  -1  -5  -5   34.18   11.11
  -1  -5  -4   24.18    9.80
  -1  -5  -3   24.83    9.89
  -1  -5  -2   14.79    4.01
  -1  -5  -1   34.98    8.91
  -1  -5   0   77.49    7.71
  -1  -5   1   47.93    8.66
  -1  -5   2   13.57    6.27
  -1  -5   3    3.30    6.09
  -1  -5   4   13.14    3.59
  -1  -5   5  101.18    8.85
  -1  -5   6   76.33    8.21
  -1  -5   7   29.76    7.69
  -1  -5   8   11.37    7.83
  -1  -5   9   24.98    8.98
  -1  -5  10   11.42    8.91
  -1  -5  11   34.29   10.22
  -1  -4 -12   11.12   17.25
  -1  -4 -11   58.60   11.38
  -1  -4 -10   55.66   10.79
  -1  -4  -9  101.91   11.16
  -1  -4  -8   10.85   11.00
  -1  -4  -7   33.07   11.58
  -1  -4  -6   88.62   12.16
  -1  -4  -5  273.50   17.09
  -1  -4  -4  293.63   14.50
  -1  -4  -3   61.51    5.90
  -1  -4  -2  107.69    5.18
  -1  -4  -1   53.51    7.45
  -1  -4   0   57.19    6.26
  -1  -4   1   51.35    6.43
  -1  -4   2   44.93    5.23
  -1  -4   3   79.97    3.15
  -1  -4   4  145.16    3.63
  -1  -4   5  150.36    7.07
  -1  -4   6   92.25    5.85
  -1  -4   7   49.48    6.68
  -1  -4   8    7.65    6.31
  -1  -4   9   23.62    7.81
  -1  -4  10    8.14    7.52
  -1  -4  11   39.30    9.38
  -1  -4  12   27.63   10.16
  -1  -3 -12   31.73   23.09
  -1  -3 -11   93.32   12.11
  -1  -3 -10  161.53   17.96
  -1  -3  -9  294.80   18.17
  -1  -3  -8   29.25    8.53
  -1  -3  -7  153.08   12.68
  -1  -3  -6  169.84   10.08
  -1  -3  -5  277.00   13.12
  -1  -3  -4  238.05    8.60
  -1  -3  -3  100.84    5.26
  -1  -3  -2  181.91    5.43
  -1  -3  -1  312.88    7.22
  -1  -3   0  368.91   24.32
  -1  -3   1  250.43    7.99
  -1  -3   2  113.74    5.02
  -1  -3   3   84.10    3.85
  -1  -3   4  112.85    4.98
  -1  -3   5  319.58    9.32
  -1  -3   6  191.37    6.14
  -1  -3   7  144.88   11.94
  -1  -3   8   44.16    7.64
  -1  -3   9   68.32   10.54
  -1  -3  10   30.01   11.49
  -1  -3  11  121.68   15.61
  -1  -3  12   57.84   14.44
  -1  -3  13   41.11   14.74
  -1  -2 -12    7.97   10.94
  -1  -2 -11   48.28   10.64
  -1  -2 -10  121.05   11.11
  -1  -2  -9  198.99   11.76
  -1  -2  -8   25.21    8.33
  -1  -2  -7   58.35    9.08
  -1  -2  -6   57.87    7.01
  -1  -2  -5  132.40   12.49
  -1  -2  -4  135.73    4.82
  -1  -2  -3   30.38    2.90
  -1  -2  -2  115.09    3.41
  -1  -2  -1  172.23   11.20
  -1  -2   0  197.94    7.97
  -1  -2   1   97.88    5.17
  -1  -2   2   17.79    1.77
  -1  -2   3   37.34    3.22
  -1  -2   4   31.46    3.32
  -1  -2   5  253.84   22.18
  -1  -2   6  137.62   14.97
  -1  -2   7   81.88    5.52
  -1  -2   8    7.10    8.68
  -1  -2   9   33.19   11.03
  -1  -2  10    9.45   10.75
  -1  -2  11   38.54   12.58
  -1  -2  12   42.94   14.02
  -1  -2  13   18.66   13.91
  -1  -1 -13   16.40   14.50
  -1  -1 -12   37.36   10.17
  -1  -1 -10   79.51   15.29
  -1  -1  -9  155.56   16.16
  -1  -1  -8  120.94   14.79
  -1  -1  -7   67.55    4.32
  -1  -1  -6  195.74   23.54
  -1  -1  -5  465.30   23.32
  -1  -1  -4  501.64   43.38
  -1  -1  -3  233.36    7.53
  -1  -1  -2  375.76   17.23
  -1  -1  -1  197.54    3.22
  -1  -1   0  268.81   14.79
  -1  -1   1   77.42    2.61
  -1  -1   2   95.81    3.13
  -1  -1   3  392.57    6.17
  -1  -1   4  344.71  108.43
  -1  -1   5  358.89   38.67
  -1  -1   6  146.88   11.86
  -1  -1   7   98.85   17.76
  -1  -1   8    2.28    3.86
  -1  -1   9   61.45   11.02
  -1  -1  10    8.95    9.86
  -1  -1  11   40.76    9.55
  -1  -1  12   27.64   13.18
  -1  -1  13   63.66   18.74
  -1   1 -12   45.39   13.08
  -1   1 -11  124.43   10.94
  -1   1 -10   96.36    9.98
  -1   1  -9   89.02   14.77
  -1   1  -8   89.66    8.64
  -1   1  -7   77.17   13.34
  -1   1  -6  186.56   26.14
  -1   1  -5  377.58    9.66
  -1   1  -4  482.35   15.23
  -1   1  -3  369.87    6.91
  -1   1  -2  429.06    9.85
  -1   1  -1  337.74    3.01
  -1   1   0  726.99   24.21
  -1   1   1   36.35    3.44
  -1   1   2  130.83    4.06
  -1   1   3  448.66   14.74
  -1   1   4  313.89    7.20
  -1   1   5  574.63   18.01
  -1   1   6  161.93   11.57
  -1   1   7  104.52   11.73
  -1   1   8    4.37    7.07
  -1   1   9   60.43   12.19
  -1   1  10    5.33    7.75
  -1   1  11    7.41    2.43
  -1   1  12   11.13    7.20
  -1   1  13   43.87   17.02
  -1   2 -12   28.59   10.66
  -1   2 -11   72.61   10.35
  -1   2 -10   86.01    9.31
  -1   2  -9  154.20   12.00
  -1   2  -8   79.75    8.99
  -1   2  -7   57.93    7.61
  -1   2  -6   80.84    6.78
  -1   2  -5   94.54    8.72
  -1   2  -4  132.22    9.72
  -1   2  -3  121.21    9.38
  -1   2  -2  137.40    4.57
  -1   2  -1  254.50   12.21
  -1   2   0  961.61   11.12
  -1   2   1  210.15    4.83
  -1   2   2   95.61    4.87
  -1   2   3  109.16    5.59
  -1   2   4   27.33    3.41
  -1   2   5  385.75   41.82
  -1   2   6   91.07   11.02
  -1   2   7   68.14   10.32
  -1   2   8   13.80   10.06
  -1   2   9   33.33   11.32
  -1   2  10   13.27   11.18
  -1   2  11    8.71   12.22
  -1   2  12   16.78    8.46
  -1   3 -12   47.59   10.42
  -1   3 -11  118.67   11.10
  -1   3 -10  139.52   12.50
  -1   3  -9  208.06   11.40
  -1   3  -8  154.04    9.99
  -1   3  -7  123.51   11.30
  -1   3  -6  153.27   11.71
  -1   3  -5  185.40   11.31
  -1   3  -4  256.82    6.87
  -1   3  -3  234.93    8.06
  -1   3  -2  194.65    6.93
  -1   3  -1  334.91    6.53
  -1   3   0 1508.78   47.98
  -1   3   1  534.07   15.73
  -1   3   2  190.26    5.68
  -1   3   3   32.73    3.26
  -1   3   4   75.76    5.74
  -1   3   5  552.06   12.99
  -1   3   6  200.66    8.74
  -1   3   7  148.79    8.98
  -1   3   8   62.24    7.48
  -1   3   9   83.97    8.75
  -1   3  10   39.42    7.98
  -1   3  11   50.15    9.61
  -1   3  12   47.52   15.03
  -1   4 -12   33.21   14.13
  -1   4 -11   60.62   14.93
  -1   4 -10   62.89   12.90
  -1   4  -9   40.91   12.57
  -1   4  -8   40.15   11.46
  -1   4  -7   26.58    9.81
  -1   4  -6  100.54   11.06
  -1   4  -5  182.27    7.52
  -1   4  -4  284.64    7.71
  -1   4  -3  225.48    8.53
  -1   4  -2   92.75    4.71
  -1   4  -1   93.28    7.93
  -1   4   0  453.47   16.47
  -1   4   1   39.82    3.71
  -1   4   2   35.84    3.83
  -1   4   3   75.00   10.99
  -1   4   4  116.05    7.18
  -1   4   5  315.89   10.35
  -1   4   6   81.75   11.21
  -1   4   7   31.19    6.38
  -1   4   8   14.50    6.89
  -1   4   9   11.14    7.26
  -1   4  10    6.06    7.49
  -1   4  11   15.32   11.43
  -1   4  12    9.78   15.35
  -1   5 -11   21.27   13.88
  -1   5 -10   67.91   14.88
  -1   5  -9   87.24   13.46
  -1   5  -8   87.29   12.52
  -1   5  -7   21.21    9.55
  -1   5  -6   14.99    6.69
  -1   5  -5   53.05    8.95
  -1   5  -4   40.31    6.39
  -1   5  -3   25.16    6.29
  -1   5  -2   29.22    4.46
  -1   5  -1   88.31    4.91
  -1   5   0  512.17    9.05
  -1   5   1  110.29    6.40
  -1   5   2   37.94    4.77
  -1   5   3    0.19    4.88
  -1   5   4    3.61    5.32
  -1   5   5  107.76   10.67
  -1   5   6   28.44    6.75
  -1   5   7   29.46    7.41
  -1   5   8   47.90    7.81
  -1   5   9   31.43    8.39
  -1   5  10   16.03    9.19
  -1   5  11   15.13   13.60
  -1   6  -6   61.05    9.62
  -1   6  -5  138.06   12.59
  -1   6  -4  149.69   13.20
  -1   6  -3   78.19    9.32
  -1   6  -2   47.20    5.06
  -1   6  -1   44.88    5.04
  -1   6   0  268.60    9.09
  -1   6   1   42.56    4.87
  -1   6   2   36.63    6.57
  -1   6   3   29.41    5.98
  -1   6   4   74.29    9.64
  -1   6   5  178.26   10.95
  -1   6   6   54.83    8.33
  -1   6   7   29.78    7.42
  -1   6   8   46.84   10.98
  -1   6   9   11.84    8.14
  -1   6  10   20.57   13.43
  -1   7  -5   74.37   12.73
  -1   7  -4   58.34   12.15
  -1   7  -3   29.93    8.70
  -1   7  -2   30.22    8.16
  -1   7  -1   35.09    8.05
  -1   7   0  167.43   10.74
  -1   7   1   29.60    9.27
  -1   7   2   36.61   11.05
  -1   7   3   17.66    6.57
  -1   7   4   30.77    7.03
  -1   7   5   68.92    9.09
  -1   7   6   38.68    8.03
  -1   7   7   11.59    9.04
  -1   7   8   39.85    9.16
  -1   7   9    5.92   12.96
  -1   8  -3    8.48    9.40
  -1   8  -2    2.54   14.46
  -1   8  -1   15.15    9.14
  -1   8   0  107.48   12.82
  -1   8   1   15.84   11.89
  -1   8   2    8.14   11.78
  -1   8   3    1.05   11.37
  -1   8   4    8.20   12.09
  -1   8   5   19.78   12.92
  -1   8   6   11.56   13.54
  -1   8   7    2.67   13.80
   0  -9   2    6.25   14.15
   0  -8  -5   14.58   12.00
   0  -8  -4   11.00   12.16
   0  -8  -3    1.85   11.38
   0  -8  -2   19.80   11.51
   0  -8  -1   38.77   12.26
   0  -8   0   89.57   13.84
   0  -8   1   38.86   18.41
   0  -8   2    3.40    8.43
   0  -8   3    1.40    8.37
   0  -8   4    5.72    8.63
   0  -8   5   14.71    9.14
   0  -8   6    9.79   11.56
   0  -8   7   10.72   12.66
   0  -8   8   15.65   13.86
   0  -7  -9   34.25   22.85
   0  -7  -8   42.31   10.22
   0  -7  -7   32.55   12.66
   0  -7  -6   43.65   11.93
   0  -7  -5   54.18   12.97
   0  -7  -4   37.83   11.59
   0  -7  -3   37.98   11.55
   0  -7  -2   37.57   11.01
   0  -7  -1   60.53   11.67
   0  -7   0  112.53    9.06
   0  -7   1   54.28    8.34
   0  -7   2   14.19   14.65
   0  -7   3   13.22    7.17
   0  -7   4   28.18    7.87
   0  -7   5   79.29   10.26
   0  -7   6   25.34    8.75
   0  -7   7   18.47    9.18
   0  -7   8   14.24    9.23
   0  -7   9   15.67   13.21
   0  -6 -11   56.30   17.17
   0  -6 -10   40.14    9.90
   0  -6  -9   35.57    9.65
   0  -6  -8   59.31    9.93
   0  -6  -7   46.48   11.93
   0  -6  -6  106.82   13.19
   0  -6  -5  149.84   14.27
   0  -6  -4  103.09   12.87
   0  -6  -3   74.33   10.96
   0  -6  -2   61.87   10.46
   0  -6  -1   92.54   11.08
   0  -6   0  211.85   10.79
   0  -6   1   70.97    7.39
   0  -6   2   29.22    7.13
   0  -6   3   31.17    6.93
   0  -6   4   59.07    8.23
   0  -6   5  156.53   27.88
   0  -6   6   56.77    8.61
   0  -6   7   29.21    8.51
   0  -6   8   10.56    8.43
   0  -6   9   15.82    8.70
   0  -6  10   11.81   12.78
   0  -5 -11   44.81   25.09
   0  -5 -10   65.33   10.23
   0  -5  -9   79.63    9.90
   0  -5  -8  127.58   10.34
   0  -5  -7   58.40   12.13
   0  -5  -6   43.57   10.34
   0  -5  -5   52.04    7.42
   0  -5  -4   27.06    8.61
   0  -5  -3   43.03    9.67
   0  -5  -2   72.41    5.67
   0  -5  -1  198.47   14.85
   0  -5   0  574.86   25.23
   0  -5   1  135.68    8.68
   0  -5   2   32.38    2.21
   0  -5   3    1.24    2.40
   0  -5   4    2.69    3.59
   0  -5   5  104.42    9.60
   0  -5   6   28.36    5.19
   0  -5   7   38.05    6.27
   0  -5   8   41.66    7.64
   0  -5   9   66.96   14.41
   0  -5  10   25.77   14.31
   0  -5  11   16.36   14.37
   0  -4 -12   22.93   11.87
   0  -4 -11   45.33   10.79
   0  -4 -10   30.17    7.00
   0  -4  -9   26.84    7.90
   0  -4  -8   87.85    9.41
   0  -4  -7   48.76   10.65
   0  -4  -6  100.21   11.79
   0  -4  -5  233.89   13.00
   0  -4  -4  165.68   12.79
   0  -4  -3  105.45    6.01
   0  -4  -2   58.92    6.12
   0  -4  -1   43.34    4.25
   0  -4   0  412.73   31.13
   0  -4   1   23.02    4.80
   0  -4   2   25.40    2.58
   0  -4   3   26.46    2.61
   0  -4   4   99.43    4.91
   0  -4   5  400.42   10.31
   0  -4   6   78.87   11.69
   0  -4   7   21.22    6.55
   0  -4   8    5.71    9.17
   0  -4   9   25.25   10.23
   0  -4  10   21.95   10.97
   0  -4  11   14.54   11.89
   0  -4  12   16.87   13.14
   0  -4  13   25.03   15.40
   0  -3 -12   53.38   12.51
   0  -3 -11   98.31   11.77
   0  -3 -10  124.53    8.01
   0  -3  -9  151.96   10.36
   0  -3  -8  334.78   10.84
   0  -3  -7  179.53   10.31
   0  -3  -6  230.48   13.42
   0  -3  -5  356.71   15.94
   0  -3  -4  260.42   11.65
   0  -3  -3  215.07   25.31
   0  -3  -2  323.26    6.10
   0  -3  -1  646.85   32.10
   0  -3   0 3387.39   70.08
   0  -3   1  720.86   25.51
   0  -3   2  276.07    4.71
   0  -3   3   42.06    2.61
   0  -3   4  105.33    5.08
   0  -3   5  568.88   17.11
   0  -3   6  155.91    6.35
   0  -3   7  142.58   12.63
   0  -3   8  100.97   11.35
   0  -3   9  155.61   15.68
   0  -3  10   65.08   12.31
   0  -3  11   48.24   14.15
   0  -3  12   28.09   14.25
   0  -3  13   17.75   14.25
   0  -2 -13   21.35   12.83
   0  -2 -12   26.00   10.54
   0  -2 -11   48.62   10.16
   0  -2 -10   57.17   10.25
   0  -2  -9   84.91    5.87
   0  -2  -8  234.07   26.63
   0  -2  -7   68.59    5.97
   0  -2  -6   90.49    6.54
   0  -2  -5  239.50   12.94
   0  -2  -4  121.89   15.08
   0  -2  -3   54.49    3.48
   0  -2  -2  129.38    5.75
   0  -2  -1  133.93    3.72
   0  -2   0 3431.51   66.86
   0  -2   1  165.98    1.91
   0  -2   2   68.45    3.94
   0  -2   3    4.97    2.62
   0  -2   4   61.90    5.87
   0  -2   5  483.11   18.02
   0  -2   6   71.36   12.68
   0  -2   7   61.84    9.23
   0  -2   8   79.92   12.60
   0  -2   9   84.01   11.35
   0  -2  10   68.69   13.76
   0  -2  11   30.07   13.10
   0  -2  12    1.04   13.70
   0  -2  13    6.08   14.77
   0  -1 -13   94.67   31.55
   0  -1 -12   24.80    9.81
   0  -1 -11   27.93    8.98
   0  -1 -10   27.40    7.66
   0  -1  -9   42.00    4.47
   0  -1  -8   66.01    4.77
   0  -1  -7   40.39    6.69
   0  -1  -6  114.76    7.58
   0  -1  -5  767.30   35.18
   0  -1  -4  390.33   15.68
   0  -1  -3  123.95    4.31
   0  -1  -2   44.02    4.36
   0  -1  -1  180.46    2.45
   0  -1   0 2601.39   87.44
   0  -1   1   38.94    2.70
   0  -1   2    7.69    2.18
   0  -1   3   16.46    1.91
   0  -1   4  248.26   24.80
   0  -1   5  758.67   18.68
   0  -1   6   91.60    9.57
   0  -1   7   17.95    7.93
   0  -1   8   16.94    5.09
   0  -1   9   24.67   10.24
   0  -1  10   62.62   12.19
   0  -1  11   13.52    5.86
   0  -1  12   15.19    8.71
   0   1 -13   31.31    9.39
   0   1 -12    9.84    7.67
   0   1 -11   31.26    7.34
   0   1 -10   22.25    7.44
   0   1  -9   23.97    9.70
   0   1  -8   32.98    3.86
   0   1  -7   25.75    5.55
   0   1  -6   85.09    7.43
   0   1  -5  795.91   57.59
   0   1  -4  225.34   12.60
   0   1  -3   17.79    2.44
   0   1  -2    7.31    2.23
   0   1  -1   40.19    6.23
   0   1   0 2493.39   10.06
   0   1   1  168.60    2.41
   0   1   2   53.23    3.09
   0   1   3  133.67    9.39
   0   1   4  395.39   11.62
   0   1   5  559.00   17.10
   0   1   6   99.66   10.55
   0   1   7   16.66    7.56
   0   1   8   62.62   11.05
   0   1   9    8.68    6.03
   0   1  10   39.10   11.47
   0   1  11   32.34   13.81
   0   1  12   30.80   13.97
   0   1  13   38.12   11.93
   0   2 -13   31.45   15.87
   0   2 -12   16.41    9.74
   0   2 -11   31.22    9.26
   0   2 -10   44.60    9.51
   0   2  -9   79.13    7.82
   0   2  -8   65.97    5.70
   0   2  -7   58.53    2.99
   0   2  -6   74.22    4.08
   0   2  -5  483.38    7.34
   0   2  -4   53.63    3.25
   0   2  -3    0.78    2.76
   0   2  -2   75.25   18.07
   0   2  -1  162.32    2.45
   0   2   0 3306.78   25.93
   0   2   1  158.92    7.43
   0   2   2  128.47    8.17
   0   2   3   65.52    3.67
   0   2   4  128.15    5.57
   0   2   5  208.78   22.80
   0   2   6   86.27   11.22
   0   2   7   68.60    5.95
   0   2   8  185.72   19.23
   0   2   9   77.63    7.22
   0   2  10   61.09   15.08
   0   2  11   44.61   13.96
   0   2  12   21.66   13.39
   0   3 -12   19.37   12.04
   0   3 -11   58.19   10.23
   0   3 -10   81.39   10.47
   0   3  -9  154.29   11.50
   0   3  -8  127.91    8.98
   0   3  -7  143.20    8.30
   0   3  -6  164.09    5.60
   0   3  -5  583.10   34.25
   0   3  -4  107.78    5.79
   0   3  -3   43.18    6.59
   0   3  -2  275.10    7.33
   0   3  -1  727.29   30.94
   0   3   0 3410.44   58.06
   0   3   1  594.97   15.74
   0   3   2  356.11   10.51
   0   3   3  198.68   21.40
   0   3   4  270.60    6.46
   0   3   5  325.78   26.57
   0   3   6  199.63   17.66
   0   3   7  180.92   29.65
   0   3   8  283.10   25.10
   0   3   9  155.80   43.35
   0   3  10  110.63    9.07
   0   3  11   88.14   15.72
   0   3  12   53.85   15.89
   0   4 -12   22.69   13.86
   0   4 -11   27.40   12.71
   0   4 -10   21.19   12.09
   0   4  -9   22.78   11.05
   0   4  -8   15.94   11.03
   0   4  -7   35.94    6.91
   0   4  -6   74.88    6.36
   0   4  -5  441.85   13.98
   0   4  -4   95.62    8.80
   0   4  -3   40.64    7.89
   0   4  -2   19.76    5.90
   0   4  -1   28.45    2.68
   0   4   0  438.76   24.79
   0   4   1   48.68    8.09
   0   4   2   59.88    4.33
   0   4   3  110.70    7.44
   0   4   4  181.23    6.98
   0   4   5  228.08    8.43
   0   4   6  117.06    7.76
   0   4   7   52.26    6.46
   0   4   8   73.24    9.80
   0   4   9   28.32   12.04
   0   4  10   39.93   12.82
   0   4  11   44.00   14.29
   0   4  12   34.74   15.46
   0   5 -11   20.31   14.56
   0   5 -10   28.29   13.45
   0   5  -9   75.70   14.42
   0   5  -7   47.83    8.45
   0   5  -6   25.92    7.41
   0   5  -5  111.01   10.96
   0   5  -4    3.86    7.37
   0   5  -3    0.33    7.81
   0   5  -2   32.30    6.11
   0   5  -1  177.02    6.12
   0   5   0  611.31    8.32
   0   5   1  203.41    8.81
   0   5   2   87.35    5.32
   0   5   3   33.56    5.43
   0   5   4   14.27    5.70
   0   5   5   51.10    5.46
   0   5   6   45.26    5.61
   0   5   7   50.84    7.22
   0   5   8  121.19    8.70
   0   5   9   60.81   12.98
   0   5  10   42.03   13.76
   0   5  11   32.70   14.34
   0   6  -6   64.86   10.88
   0   6  -5  177.57   13.48
   0   6  -4   69.27   11.52
   0   6  -3   33.71    9.77
   0   6  -2   33.56    7.63
   0   6  -1   78.40    7.67
   0   6   0  206.24    8.21
   0   6   1  103.13    5.50
   0   6   2   63.51    5.30
   0   6   3   71.41    7.08
   0   6   4   92.87    6.84
   0   6   5  138.69    7.59
   0   6   6   89.33    7.31
   0   6   7   57.69    7.53
   0   6   8   44.75    7.91
   0   6   9   50.11   12.82
   0   6  10   34.52   13.26
   0   6  11   32.44   14.87
   0   7  -6   39.89   10.57
   0   7  -5   78.37   13.47
   0   7  -4   38.66   11.29
   0   7  -3   18.80   11.58
   0   7  -2   14.45    8.11
   0   7  -1   41.77    9.06
   0   7   0  120.16   10.05
   0   7   1   62.78    9.18
   0   7   2   35.31    8.22
   0   7   3   36.52    8.65
   0   7   4   48.51    8.70
   0   7   5   58.81    9.48
   0   7   6   45.35   12.00
   0   7   7   25.86    8.05
   0   7   8   42.34   13.00
   0   7   9   36.79   13.62
   0   7  10   29.24   14.77
   0   8  -5   32.28   13.25
   0   8  -4    2.54   11.98
   0   8  -3    0.79   12.47
   0   8  -2    2.12   12.91
   0   8  -1   38.16   11.24
   0   8   0   77.67   10.91
   0   8   1   46.84   10.00
   0   8   2   24.63    9.97
   0   8   3   12.83   10.59
   0   8   4    3.62    9.04
   0   8   5   11.52    9.08
   0   8   6   19.82   12.52
   0   9  -4   34.11   15.69
   0   9  -3   17.99   15.24
   0   9  -2    3.25   14.98
   0   9  -1    3.55   15.45
   0   9   0   10.09   10.86
   0   9   1   11.28   13.63
   0   9   2   19.49   14.90
   0   9   3   21.45   15.01
   0   9   4   47.46   15.83
   0   9   5   49.00   15.55
   1  -9  -1    7.47   15.77
   1  -9   0   53.41   14.97
   1  -9   1   15.18    9.70
   1  -9   2   12.43    8.96
   1  -9   3   26.57   14.88
   1  -8  -6   19.56   16.09
   1  -8  -5   14.45   15.85
   1  -8  -4    3.70   13.96
   1  -8  -3   12.19   14.49
   1  -8   0   96.06   14.82
   1  -8   1   39.23   11.32
   1  -8   2   12.01   11.03
   1  -8   3    7.00   12.01
   1  -8   4    9.81    8.60
   1  -8   5   19.58   13.68
   1  -7  -9   13.55   14.99
   1  -7  -8   44.76   15.44
   1  -7  -7   24.74   15.05
   1  -7  -6   31.17   14.04
   1  -7  -5   75.85   16.08
   1  -7  -4   44.69    8.63
   1  -7  -3   17.65    9.40
   1  -7  -2   15.09    8.67
   1  -7  -1   32.58    7.02
   1  -7   0  185.37   10.95
   1  -7   1   38.70    7.14
   1  -7   2   23.83    6.86
   1  -7   3   37.20    7.44
   1  -7   4   53.64    7.82
   1  -7   5   69.68   11.24
   1  -7   6   24.30    8.63
   1  -7   7   11.50    8.54
   1  -7   8   27.12   12.38
   1  -7   9   19.21   12.30
   1  -6 -11   19.92   14.05
   1  -6 -10   17.94    9.54
   1  -6  -9   25.89    8.77
   1  -6  -8   43.98    9.42
   1  -6  -7   29.66    8.06
   1  -6  -6   72.11    9.01
   1  -6  -5  195.41   14.61
   1  -6  -4   94.76    7.49
   1  -6  -3   48.88    8.89
   1  -6  -2   47.54    9.18
   1  -6  -1   42.98    5.97
   1  -6   0  262.85   11.02
   1  -6   1   65.03    6.78
   1  -6   2   50.66    8.47
   1  -6   3   81.24    5.41
   1  -6   4  129.03    6.59
   1  -6   5  148.28    7.51
   1  -6   6   59.37    8.12
   1  -6   7   26.37    7.63
   1  -6   8   43.81    9.13
   1  -6   9   38.10   13.57
   1  -6  10   61.22   13.94
   1  -5 -12   10.25   14.51
   1  -5 -11    8.42   13.23
   1  -5 -10    6.82    8.28
   1  -5  -9   35.84    8.85
   1  -5  -8   45.20    8.06
   1  -5  -7   23.73    8.37
   1  -5  -6   21.42    9.71
   1  -5  -5  109.84    8.25
   1  -5  -4    3.78    6.74
   1  -5  -3    4.99    6.89
   1  -5  -2   37.05    7.34
   1  -5  -1  104.76    5.49
   1  -5   0  466.98   10.11
   1  -5   1   84.40    4.31
   1  -5   2   32.34    7.51
   1  -5   3   24.86    5.02
   1  -5   4   31.37    4.22
   1  -5   5   45.83    4.37
   1  -5   6   17.52    4.21
   1  -5   7   27.25    6.88
   1  -5   8   70.94   11.67
   1  -5   9   78.81   12.92
   1  -5  10   72.66   14.99
   1  -4 -12   19.29   11.87
   1  -4 -11   11.92   11.55
   1  -4 -10    3.48    9.45
   1  -4  -9    9.81    7.08
   1  -4  -8   14.39    6.95
   1  -4  -7   39.54    7.12
   1  -4  -6  100.34    8.47
   1  -4  -5  363.57   13.79
   1  -4  -4  134.06   13.56
   1  -4  -3   93.45    8.44
   1  -4  -2   45.65    6.90
   1  -4  -1   46.07    3.93
   1  -4   0  416.08    9.81
   1  -4   1  106.83    5.68
   1  -4   2  109.22    3.87
   1  -4   3  219.20    6.21
   1  -4   4  276.02   11.99
   1  -4   5  186.89    7.43
   1  -4   6   98.75    6.05
   1  -4   7   38.61    9.96
   1  -4   8   34.29   11.31
   1  -4   9   39.18   12.56
   1  -4  10   28.49   11.83
   1  -4  11   50.84   15.53
   1  -4  12   42.50   15.36
   1  -3 -13   51.43   15.26
   1  -3 -12   25.99   10.69
   1  -3 -11   66.24   11.46
   1  -3 -10   54.48    7.63
   1  -3  -9   96.07    8.55
   1  -3  -8   73.51    7.56
   1  -3  -7  148.86   11.33
   1  -3  -6  191.09    8.54
   1  -3  -5  529.49   12.62
   1  -3  -4   80.36    6.21
   1  -3  -3   46.48    5.26
   1  -3  -2  205.94    6.19
   1  -3  -1  498.30    9.47
   1  -3   0 1486.80   35.82
   1  -3   1  345.28    4.47
   1  -3   2  204.43   14.77
   1  -3   3  215.50    4.35
   1  -3   4  263.86   20.73
   1  -3   5  202.50    9.26
   1  -3   6  155.92    7.07
   1  -3   7  128.24   12.04
   1  -3   8  138.57   13.42
   1  -3   9  210.99   16.08
   1  -3  10  145.60   17.69
   1  -3  11  131.36   16.62
   1  -3  12   45.22   14.24
   1  -2 -13   38.28   12.49
   1  -2 -12   16.88   10.98
   1  -2 -11   33.17    9.28
   1  -2 -10   13.66    5.41
   1  -2  -9   51.43    7.52
   1  -2  -8   10.72    5.40
   1  -2  -7   82.06    6.56
   1  -2  -6   83.82    8.46
   1  -2  -5  373.38    8.90
   1  -2  -4   32.51    5.01
   1  -2  -3  134.17    5.36
   1  -2  -2  104.54    3.50
   1  -2  -1  239.89    6.55
   1  -2   0  907.63   34.69
   1  -2   1  297.60   14.54
   1  -2   2  171.38    4.06
   1  -2   3  127.14    2.93
   1  -2   4  142.34    4.41
   1  -2   5   92.13    6.23
   1  -2   6   92.58    9.69
   1  -2   7   66.53   10.98
   1  -2   8   79.75   12.18
   1  -2   9  146.65   16.10
   1  -2  10  102.00   13.89
   1  -2  11   95.55   15.94
   1  -2  12    8.94   13.77
   1  -2  13    0.97   14.93
   1  -1 -13   36.60   21.37
   1  -1 -12   23.93    9.84
   1  -1 -10   12.29   10.86
   1  -1  -9   30.54    4.90
   1  -1  -8    7.18    3.81
   1  -1  -7   80.52   13.17
   1  -1  -6  179.29   24.32
   1  -1  -5  545.29   19.63
   1  -1  -4  326.36    8.63
   1  -1  -3  496.64   16.70
   1  -1  -2  164.32    6.33
   1  -1  -1   24.77    5.12
   1  -1   0  672.43   12.67
   1  -1   1  376.11    2.93
   1  -1   2  468.11   20.65
   1  -1   3  404.24   14.55
   1  -1   4  512.05   82.93
   1  -1   5  355.20   36.45
   1  -1   6  189.03   12.93
   1  -1   7   74.81    8.96
   1  -1   8   21.42    6.45
   1  -1   9  211.80   16.03
   1  -1  10   95.65   13.90
   1  -1  11   44.72    9.57
   1  -1  12   14.25    7.56
   1  -1  13    2.64   15.42
   1   1 -13   28.95   15.04
   1   1 -12   45.05    9.79
   1   1 -11   64.30    9.50
   1   1 -10    6.55    8.06
   1   1  -9   14.84    6.86
   1   1  -8    6.30    5.34
   1   1  -7   92.14   14.14
   1   1  -6  172.60    8.96
   1   1  -5  415.03   22.71
   1   1  -4  398.50   14.85
   1   1  -3  461.86    8.49
   1   1  -2  121.26    4.09
   1   1  -1   57.72    1.95
   1   1   0  228.30    6.23
   1   1   1  239.76    9.11
   1   1   2  426.81   37.75
   1   1   3  228.56    5.87
   1   1   4  549.80   10.48
   1   1   5  479.73   12.28
   1   1   6  135.58   11.04
   1   1   7   85.26    9.54
   1   1   8   16.15    4.11
   1   1   9  159.11   15.17
   1   1  10  112.01   15.61
   1   1  11   34.01    4.47
   1   1  12   21.55   12.45
   1   2 -13   33.33   15.14
   1   2 -12   22.41   10.07
   1   2 -11   59.75    9.87
   1   2 -10    5.39    8.11
   1   2  -9   31.94    4.87
   1   2  -8    8.63    3.90
   1   2  -7   77.06    7.75
   1   2  -6  110.84    5.60
   1   2  -5  239.67    9.98
   1   2  -4   44.17    3.36
   1   2  -3   55.28    3.71
   1   2  -2   26.67    3.17
   1   2  -1  104.92    4.96
   1   2   0  147.82    5.04
   1   2   1  176.48   12.98
   1   2   2  138.24    5.58
   1   2   3   29.06    3.12
   1   2   4  131.15    5.58
   1   2   5  170.35    7.79
   1   2   6   55.21    3.90
   1   2   7   56.38    5.74
   1   2   8    8.92    5.16
   1   2   9  207.41    9.76
   1   2  10  124.44   15.35
   1   2  11   88.01   16.39
   1   2  12   25.61   14.52
   1   3 -13   40.26   16.28
   1   3 -12   62.64   10.68
   1   3 -11   89.35   11.18
   1   3 -10   39.49    8.78
   1   3  -9   86.30    8.88
   1   3  -8   50.13    5.51
   1   3  -7  128.90    6.21
   1   3  -6  199.71    6.73
   1   3  -5  311.88    6.50
   1   3  -4  120.35   10.74
   1   3  -3   88.56    4.30
   1   3  -2  102.54    9.37
   1   3  -1  245.63   11.04
   1   3   0  376.62   33.11
   1   3   1  292.49    7.24
   1   3   2  189.21    5.54
   1   3   3   96.34    5.22
   1   3   4  275.44    7.30
   1   3   5  284.45    6.24
   1   3   6  148.27    7.52
   1   3   7  127.28    5.70
   1   3   8   17.05    5.56
   1   3   9  280.24   18.01
   1   3  10  166.30   17.54
   1   3  11   85.65   16.28
   1   3  12   31.93   15.04
   1   4 -12   44.15   14.99
   1   4 -11   54.26   10.18
   1   4 -10    5.08    8.46
   1   4  -9   26.69    8.56
   1   4  -8    7.52    4.54
   1   4  -7   34.82    7.02
   1   4  -6   83.24    8.68
   1   4  -5  152.50    7.66
   1   4  -4  174.60   10.96
   1   4  -3  116.92   10.16
   1   4  -2   50.18    8.18
   1   4  -1   36.20    8.31
   1   4   0   51.86    1.96
   1   4   1   60.06    6.51
   1   4   2  121.11    4.71
   1   4   3   66.09    6.15
   1   4   4  362.52   12.54
   1   4   5  281.98    8.36
   1   4   6  103.06    5.78
   1   4   7   34.71    4.95
   1   4   8    6.37    6.56
   1   4   9  116.31   14.84
   1   4  10   86.56   15.29
   1   4  11   40.10   14.50
   1   4  12   50.84   16.28
   1   5  -7   24.79    8.58
   1   5  -6   85.62   10.08
   1   5  -5   89.62   10.98
   1   5  -4   11.60    8.41
   1   5  -3    9.44    8.35
   1   5  -2    9.61    8.30
   1   5  -1   36.82    9.69
   1   5   0   64.74    7.53
   1   5   1   42.24    3.57
   1   5   2   10.53    5.78
   1   5   3   13.20    4.10
   1   5   4   24.82    4.69
   1   5   5   33.25    4.62
   1   5   6    9.83    4.78
   1   5   7    8.89    4.96
   1   5   8    1.45    7.14
   1   5   9   92.00   14.63
   1   5  10   66.24   15.20
   1   5  11   18.66   14.29
   1   6  -7   25.08   10.66
   1   6  -6   69.47   11.64
   1   6  -5  125.49   14.08
   1   6  -4   88.34   11.88
   1   6  -3   54.75   11.85
   1   6  -2   61.58   11.87
   1   6  -1   49.77   11.58
   1   6   0   60.42    8.09
   1   6   1   42.98    7.82
   1   6   2   58.60    4.89
   1   6   3   34.66    5.18
   1   6   4  159.62    9.75
   1   6   5  138.32    7.30
   1   6   6   66.15    6.34
   1   6   7   29.20    7.67
   1   6   8    1.55    7.44
   1   6   9   67.19   13.97
   1   6  10   59.50   14.72
   1   7  -6   45.57   12.19
   1   7  -5   62.79   13.20
   1   7  -4   44.40   13.31
   1   7  -3   19.21   11.48
   1   7  -2   26.51   12.20
   1   7  -1   19.91   12.13
   1   7   0   38.04   12.66
   1   7   1   32.82    8.69
   1   7   2   38.46    8.36
   1   7   3    8.14    7.64
   1   7   4   68.43   13.96
   1   7   5   51.02    8.63
   1   7   6   29.44   14.40
   1   7   7    3.67   13.43
   1   8  -6   16.95   12.24
   1   8  -5   16.39   13.52
   1   8  -4    0.52   13.24
   1   8  -3    0.58   12.78
   1   8  -2   13.63   12.95
   1   8  -1    5.65   13.22
   1   8   0   12.16   14.62
   1   8   1    5.05    9.03
   1   8   2    3.69    8.92
   1   8   3    4.44    9.00
   1   8   4    1.56    9.23
   1   8   5    5.09   13.43
   1   9   3   27.86   14.83
   2  -9   0   13.87    9.45
   2  -9   1    8.38    8.87
   2  -9   2    7.54    8.96
   2  -9   3   23.09    9.27
   2  -8  -5   14.07   15.37
   2  -8  -4    1.71   12.90
   2  -8  -3    0.57   13.31
   2  -8  -2    0.53   13.81
   2  -8  -1    6.74    8.17
   2  -8   0    1.92    8.04
   2  -8   1    8.85    7.99
   2  -8   2    0.74    7.44
   2  -8   3    1.32    7.73
   2  -8   4   12.62    8.18
   2  -8   5    9.01   10.31
   2  -7  -8   22.21   16.35
   2  -7  -7   25.89   14.82
   2  -7  -6   23.66   14.97
   2  -7  -5   41.98   13.75
   2  -7  -4   31.32   14.49
   2  -7  -3    9.15   13.23
   2  -7  -2   19.94   12.73
   2  -7  -1   44.01    7.88
   2  -7   0   27.67    7.88
   2  -7   1   30.43    7.32
   2  -7   2   20.70    7.63
   2  -7   3   19.91    7.52
   2  -7   4   44.71    9.28
   2  -7   5   41.50   12.17
   2  -7   6   29.50   12.77
   2  -7   7   21.27   14.09
   2  -6 -11   40.86   16.42
   2  -6 -10   30.93   13.84
   2  -6  -9   34.76   14.69
   2  -6  -8   29.60   13.77
   2  -6  -7   69.00   15.10
   2  -6  -6   40.47   12.59
   2  -6  -5  112.29   15.99
   2  -6  -4   83.85   14.01
   2  -6  -3   68.50   13.84
   2  -6  -2   79.86    5.55
   2  -6  -1   80.36    5.89
   2  -6   0   50.28    4.83
   2  -6   1   64.43    6.18
   2  -6   2   70.82    5.04
   2  -6   3   60.85    5.54
   2  -6   4  137.63    9.08
   2  -6   5  111.28    5.66
   2  -6   6   53.36    6.04
   2  -6   7   33.94    6.68
   2  -6   8    2.52    7.76
   2  -6   9   71.68   10.48
   2  -5 -11   24.32   13.09
   2  -5 -10   14.74   12.52
   2  -5  -9   14.03    7.50
   2  -5  -8    4.11    7.32
   2  -5  -7   38.47    7.10
   2  -5  -6   52.82    7.22
   2  -5  -5  144.83    7.96
   2  -5  -4    2.59    4.88
   2  -5  -3    8.51    4.16
   2  -5  -2   27.16    3.05
   2  -5  -1   29.48    3.71
   2  -5   0    3.69    2.58
   2  -5   1   27.62    3.01
   2  -5   2    3.47    3.48
   2  -5   3   22.60    4.18
   2  -5   4   30.02    3.88
   2  -5   5   17.88    3.88
   2  -5   6    9.34    9.04
   2  -5   7   19.94   10.05
   2  -5   8   18.78   10.81
   2  -5   9   73.90   13.91
   2  -5  10   22.88   13.05
   2  -5  11    0.89   13.85
   2  -4 -13   25.53   15.08
   2  -4 -12   38.24   13.84
   2  -4 -11   73.75   15.54
   2  -4 -10   34.23    7.84
   2  -4  -9   62.21    8.65
   2  -4  -8   41.70    7.30
   2  -4  -7   92.54    8.45
   2  -4  -6   89.91    6.93
   2  -4  -5   93.76   18.93
   2  -4  -4  147.76    6.95
   2  -4  -3  122.47    7.68
   2  -4  -2  145.50    7.15
   2  -4  -1  128.95    3.39
   2  -4   0   76.25    4.02
   2  -4   1   67.61    3.38
   2  -4   2   91.06    5.62
   2  -4   3   63.97    5.37
   2  -4   4  290.73   21.82
   2  -4   5  187.93   15.86
   2  -4   6   57.83    5.66
   2  -4   7   33.33   10.11
   2  -4   8    2.46   10.50
   2  -4   9  108.40   14.98
   2  -4  10   40.80   13.78
   2  -4  11   43.14   15.64
   2  -4  12   29.86   16.37
   2  -3 -13   38.75   15.06
   2  -3 -12   81.01   12.28
   2  -3 -11   80.95   13.25
   2  -3 -10   61.32    8.46
   2  -3  -9   71.58    7.77
   2  -3  -8   85.26    8.02
   2  -3  -7  166.38    8.47
   2  -3  -6  204.21    9.53
   2  -3  -5  215.83    7.30
   2  -3  -4  174.42    7.37
   2  -3  -3  158.16    5.46
   2  -3  -2  167.04   13.49
   2  -3  -1  146.22    6.17
   2  -3   0   80.19   13.62
   2  -3   1  100.66    3.33
   2  -3   2  114.42    5.33
   2  -3   3   89.80    5.54
   2  -3   4  339.48   15.43
   2  -3   5  206.85    5.37
   2  -3   6   63.40    4.80
   2  -3   7   56.76   11.08
   2  -3   8   18.58   10.03
   2  -3   9  201.25   18.38
   2  -3  10   81.47   14.71
   2  -3  11   40.10   15.03
   2  -3  12   35.52   15.87
   2  -2 -13   40.95   15.34
   2  -2 -12   67.17   10.79
   2  -2 -11   57.31   12.79
   2  -2 -10   43.30    7.32
   2  -2  -9   43.98    6.88
   2  -2  -8   51.10    7.52
   2  -2  -7  100.83    7.43
   2  -2  -6  116.68    6.20
   2  -2  -5  121.73    7.22
   2  -2  -4   82.20    4.77
   2  -2  -3   85.50    4.74
   2  -2  -2  136.82    4.25
   2  -2  -1   65.18    3.83
   2  -2   0   48.30    5.03
   2  -2   1   21.56    4.41
   2  -2   2   49.09    3.39
   2  -2   3   21.54    2.97
   2  -2   4  214.02    3.48
   2  -2   5  110.17    3.69
   2  -2   6   24.72    9.24
   2  -2   7   22.39    8.98
   2  -2   8   51.66   11.88
   2  -2   9  123.41   14.62
   2  -2  10   39.11   13.50
   2  -2  11    1.44   13.66
   2  -2  12    0.22   14.22
   2  -1 -13   50.62   11.64
   2  -1 -12   53.82   18.45
   2  -1 -11  121.60   10.49
   2  -1 -10   87.55   11.52
   2  -1  -9   56.19   10.35
   2  -1  -8   88.56    7.12
   2  -1  -7  111.73    7.64
   2  -1  -6  151.23   10.48
   2  -1  -5   85.41    7.35
   2  -1  -4  240.73   28.29
   2  -1  -3  185.27    6.32
   2  -1  -2  380.46   62.06
   2  -1  -1  327.47   47.56
   2  -1   0  317.72    8.73
   2  -1   1  142.33    4.22
   2  -1   2  170.04    7.82
   2  -1   3   36.31    2.60
   2  -1   4  555.69   43.88
   2  -1   5  282.93   22.58
   2  -1   6   59.56    4.93
   2  -1   7   16.45    5.00
   2  -1   8   30.88   12.02
   2  -1   9  197.04   17.55
   2  -1  10   71.49   14.01
   2  -1  11   36.91   12.33
   2  -1  12   26.87   11.83
   2   1 -13   20.10    6.07
   2   1 -12   56.54   11.24
   2   1 -11   97.09    9.16
   2   1 -10   89.68   10.12
   2   1  -9   88.91    9.86
   2   1  -8   71.59    5.05
   2   1  -7  113.81    5.71
   2   1  -6  135.57   14.99
   2   1  -5  163.10    5.19
   2   1  -4  215.35    8.88
   2   1  -3  207.23    5.28
   2   1  -2  628.29   18.82
   2   1  -1  361.39   13.92
   2   1   0  503.77    6.26
   2   1   1  111.95    4.40
   2   1   2  126.89    4.79
   2   1   3   56.27    3.99
   2   1   4  570.16   26.04
   2   1   5  303.27   45.37
   2   1   6   40.82    2.11
   2   1   7   18.65    3.86
   2   1   8   10.19   10.94
   2   1   9    5.83   16.63
   2   1  10   47.46   10.35
   2   1  11   32.99   13.41
   2   1  12   27.24   17.28
   2   2 -13   29.27   15.45
   2   2 -12   39.40   10.38
   2   2 -11   44.82    9.68
   2   2 -10   74.95    9.80
   2   2  -9   49.20    8.17
   2   2  -8   35.84    5.74
   2   2  -7   79.64    5.77
   2   2  -6  103.84    5.15
   2   2  -5  105.27    7.50
   2   2  -4   76.30   11.60
   2   2  -3   44.49    5.31
   2   2  -2  300.67   10.39
   2   2  -1   67.00    3.64
   2   2   0  162.85   17.23
   2   2   1    7.35    3.28
   2   2   2   25.98    3.86
   2   2   3    4.65    5.56
   2   2   4  326.88    8.41
   2   2   5   87.32   11.94
   2   2   6   15.30    3.10
   2   2   7   19.62    5.99
   2   2   8   28.33    8.30
   2   2   9   64.05   12.87
   2   2  10   45.50   13.66
   2   2  11   14.07   13.41
   2   2  12   10.65   15.10
   2   3 -13   52.72   15.81
   2   3 -12   84.75   11.58
   2   3 -11   79.81   10.45
   2   3 -10  123.10   10.73
   2   3  -9   70.54    6.92
   2   3  -8   74.50    5.84
   2   3  -7  172.68    8.63
   2   3  -6  163.34   16.07
   2   3  -5  211.31    7.34
   2   3  -4  178.97    5.70
   2   3  -3  165.88   13.43
   2   3  -2  501.16    7.50
   2   3  -1  156.07    4.60
   2   3   0  254.60    3.82
   2   3   1   22.96    3.46
   2   3   2   93.50    8.71
   2   3   3   69.76    5.47
   2   3   4  422.50    7.75
   2   3   5  190.18    5.59
   2   3   6   80.45    4.48
   2   3   7   45.68    6.87
   2   3   8   42.90    7.09
   2   3   9   75.90   14.73
   2   3  10   53.74   14.25
   2   3  11   22.05   13.89
   2   4 -12   54.63   15.72
   2   4 -11   64.75   14.91
   2   4 -10   85.26   14.22
   2   4  -9   49.38   11.16
   2   4  -8   55.91    7.07
   2   4  -7  169.48   18.03
   2   4  -6   58.00   10.03
   2   4  -5   93.87   10.93
   2   4  -4  107.69    5.07
   2   4  -3   89.10   21.19
   2   4  -2  346.42   16.66
   2   4  -1  171.40   12.05
   2   4   0  198.32   17.83
   2   4   1   56.84    3.80
   2   4   2   86.77    5.59
   2   4   3   72.61    4.68
   2   4   4  250.12   12.02
   2   4   5  129.79   10.40
   2   4   6   65.82    5.82
   2   4   7   21.36    6.37
   2   4   8   16.40    7.15
   2   4   9   61.69    8.36
   2   4  10   39.16   14.24
   2   4  11   24.33   15.12
   2   5  -8    2.32    9.10
   2   5  -7   59.91   11.10
   2   5  -6   33.13   10.09
   2   5  -5   40.88    9.65
   2   5  -4   29.40    9.74
   2   5  -3   15.76    9.17
   2   5  -2   75.06   10.81
   2   5  -1   12.28    9.10
   2   5   0   36.66   10.45
   2   5   1    1.64    8.55
   2   5   2    3.70    3.46
   2   5   3   10.02    4.04
   2   5   4   88.46    7.42
   2   5   5   26.94    4.83
   2   5   6   11.75    6.19
   2   5   7    8.84    7.16
   2   5   8   17.46    8.06
   2   5   9   16.12    8.13
   2   5  10    4.75   12.49
   2   5  11    5.90   14.76
   2   6  -7  144.34   14.26
   2   6  -6   46.63   11.28
   2   6  -5   70.36   12.35
   2   6  -4   70.00   12.49
   2   6  -3  104.42   13.15
   2   6  -2  200.10   16.90
   2   6  -1  105.77   13.18
   2   6   0  100.24   14.64
   2   6   1   75.04   13.15
   2   6   2   63.36   12.98
   2   6   3   49.57   12.14
   2   6   4  126.12    9.46
   2   6   5   92.13   14.48
   2   6   6   71.63   14.13
   2   6   7   18.93   12.18
   2   6   8   18.39   12.82
   2   6   9   23.59   13.85
   2   7  -7   89.50   15.42
   2   7  -6   16.74   12.77
   2   7  -5   23.93   12.75
   2   7  -4   29.99   13.18
   2   7  -3   36.71   13.35
   2   7  -2   74.54   14.54
   2   7  -1   41.27   13.59
   2   7   0   35.64   12.84
   2   7   1   37.82   13.55
   2   7   2   28.13   12.97
   2   7   3   20.88   13.19
   2   7   4   74.26   14.17
   2   7   5   32.67   14.19
   2   7   6   47.16   14.39
   2   7   7   14.38   13.50
   2   7   8   14.33   14.45
   2   8  -6    7.09   13.62
   2   8  -5    0.32   13.07
   2   8  -4    9.47   13.85
   2   8  -3    8.91   13.23
   2   8  -2   29.85   13.97
   2   8  -1   10.01   15.10
   2   8   0   10.17   13.51
   2   8   1    3.35   14.63
   2   8   2    0.47   14.41
   2   8   3    0.37   14.25
   2   8   4   12.25   14.71
   3  -8  -4   18.55   15.25
   3  -8  -3    5.44   15.31
   3  -8  -2   17.95   14.25
   3  -8  -1    0.14   13.52
   3  -8   0    8.55   13.64
   3  -8   1    2.55    8.38
   3  -8   2    5.10    8.26
   3  -8   3    0.76    8.10
   3  -8   4   16.63   12.30
   3  -8   5    3.44   11.25
   3  -7  -7   48.79   17.10
   3  -7  -6   35.95   15.48
   3  -7  -5    8.74   14.93
   3  -7  -4   51.91   15.56
   3  -7  -3   45.14   13.63
   3  -7  -2   62.00   16.04
   3  -7  -1   28.96    8.15
   3  -7   0   19.48    7.47
   3  -7   1   30.22    8.13
   3  -7   2   36.31    8.15
   3  -7   3    6.71    7.54
   3  -7   4   49.14    8.46
   3  -7   5   27.87   11.96
   3  -7   6   17.19   10.79
   3  -7   7   12.80   12.09
   3  -6 -10   72.77   17.99
   3  -6  -9   59.87   15.87
   3  -6  -8   95.16   17.06
   3  -6  -7   85.48   15.81
   3  -6  -6   54.80   13.89
   3  -6  -5   33.29   13.28
   3  -6  -4   88.39   15.08
   3  -6  -3  102.32   14.56
   3  -6  -2  187.06    9.86
   3  -6  -1  111.07    8.22
   3  -6   0   93.58   10.89
   3  -6   1   61.70    7.89
   3  -6   2   81.57   13.58
   3  -6   3   33.09    7.17
   3  -6   4  120.59    7.56
   3  -6   5   57.28   10.06
   3  -6   6   30.97    8.81
   3  -6   7   29.79   12.29
   3  -6   8   22.54   13.05
   3  -5 -11   13.44   13.53
   3  -5 -10   33.15   12.92
   3  -5  -9   11.35   13.51
   3  -5  -8   29.03   13.08
   3  -5  -7   70.79   14.45
   3  -5  -6   19.33   12.24
   3  -5  -5   18.18   11.33
   3  -5  -4   40.01   11.56
   3  -5  -3   31.59   11.59
   3  -5  -2   92.42    6.62
   3  -5  -1   32.23    5.73
   3  -5   0   45.49    6.69
   3  -5   1   26.33    5.78
   3  -5   2   10.76    6.17
   3  -5   3   18.03    8.32
   3  -5   4  106.47   10.13
   3  -5   5   30.54    6.37
   3  -5   6   15.87   10.53
   3  -5   7   15.26   10.99
   3  -5   8   57.89   13.68
   3  -5   9    2.48   12.69
   3  -5  10   13.13   14.61
   3  -4 -11   56.74   14.07
   3  -4 -10   97.49   15.20
   3  -4  -9   73.25   12.89
   3  -4  -8   76.33    8.21
   3  -4  -7  127.72    8.22
   3  -4  -6   38.76   11.91
   3  -4  -5   35.73    4.62
   3  -4  -4   59.90   10.74
   3  -4  -3  135.85   13.90
   3  -4  -2  412.48    9.53
   3  -4  -1  198.24    7.38
   3  -4   0  197.49    9.68
   3  -4   1   46.25    9.72
   3  -4   2   83.59    4.47
   3  -4   3   55.79    8.47
   3  -4   4  162.20   10.75
   3  -4   5   57.92   14.22
   3  -4   6   45.97   12.24
   3  -4   7   54.61   12.51
   3  -4   8   24.32   12.12
   3  -4   9   59.16   14.12
   3  -4  10   15.83   14.25
   3  -4  11   17.14   14.18
   3  -3 -12   43.63   13.18
   3  -3 -11   44.64    8.64
   3  -3 -10   91.78    9.19
   3  -3  -9   63.25    8.30
   3  -3  -8   91.78    8.08
   3  -3  -7  277.22   18.96
   3  -3  -6   98.69    6.87
   3  -3  -5  128.01    6.67
   3  -3  -4  124.40    5.08
   3  -3  -3  175.34   13.62
   3  -3  -2  540.29   17.66
   3  -3  -1  233.85   10.56
   3  -3   0  249.38   14.30
   3  -3   1  138.85    9.54
   3  -3   2  173.09   10.45
   3  -3   3  172.44   10.69
   3  -3   4  346.59   12.21
   3  -3   5  143.03    7.81
   3  -3   6   81.71    8.01
   3  -3   7   52.77   12.31
   3  -3   8   93.77   14.32
   3  -3   9   61.80   14.82
   3  -3  10   54.63   15.09
   3  -3  11   48.49   15.47
   3  -2 -13    1.09   13.17
   3  -2 -12   33.33   38.70
   3  -2 -11   22.39    7.66
   3  -2 -10   45.50    8.45
   3  -2  -9   24.75    6.79
   3  -2  -8   44.76    6.88
   3  -2  -7  228.87   10.10
   3  -2  -6   34.99    5.67
   3  -2  -5   45.20    4.97
   3  -2  -4   37.40    4.85
   3  -2  -3   89.23   10.38
   3  -2  -2  492.07    6.08
   3  -2  -1  122.58   10.71
   3  -2   0   84.10    9.14
   3  -2   1   73.44    7.41
   3  -2   2   95.93    9.99
   3  -2   3   79.77    5.07
   3  -2   4  217.71   10.65
   3  -2   5   68.11    5.15
   3  -2   6   43.85    3.09
   3  -2   7   41.13   12.13
   3  -2   8   55.92   12.48
   3  -2   9   25.96   13.38
   3  -2  10    5.51   13.38
   3  -2  11   17.12   13.97
   3  -1 -13   10.13   14.40
   3  -1 -12   62.71   11.57
   3  -1 -11   44.58   16.53
   3  -1 -10   79.20   18.05
   3  -1  -9  139.26   19.89
   3  -1  -8  101.84   12.28
   3  -1  -7  339.86   22.91
   3  -1  -6   23.67    5.08
   3  -1  -5   46.80    6.00
   3  -1  -4   41.75    6.45
   3  -1  -3  178.50   11.89
   3  -1  -2  955.99   22.63
   3  -1  -1  331.51   13.90
   3  -1   0  305.99   22.12
   3  -1   1  114.77    6.45
   3  -1   2  160.50    9.96
   3  -1   3  140.04    6.11
   3  -1   4  202.21    8.92
   3  -1   5   96.90    7.60
   3  -1   6   77.86   11.66
   3  -1   7   82.88   12.46
   3  -1   8  117.72   15.31
   3  -1   9   36.01    5.93
   3  -1  10   35.10   12.47
   3  -1  11   12.97    8.71
   3   1 -13    0.41   17.62
   3   1 -12   29.22   10.85
   3   1 -11   40.90   10.36
   3   1 -10   76.80    7.47
   3   1  -9   83.72    6.56
   3   1  -8   72.75    7.19
   3   1  -7  350.86   26.00
   3   1  -6   10.33    6.90
   3   1  -5   36.69    7.38
   3   1  -4   45.46    8.07
   3   1  -3  216.86    7.43
   3   1  -2  793.82   26.14
   3   1  -1  321.86   29.31
   3   1   0  217.99   27.12
   3   1   1  140.93    7.90
   3   1   2  121.27   10.94
   3   1   3  125.63    5.29
   3   1   4  127.36    6.40
   3   1   5   92.80   22.91
   3   1   6   53.55   18.32
   3   1   7   67.05    6.20
   3   1   8   46.28    6.63
   3   1   9   49.18   10.05
   3   1  10   26.08   12.80
   3   1  11   41.89   12.58
   3   2 -13    3.26   15.36
   3   2 -12   51.72   10.95
   3   2 -11    4.10    8.91
   3   2 -10   15.05    6.17
   3   2  -9   32.17    7.68
   3   2  -8   52.70   15.35
   3   2  -7  300.37   21.12
   3   2  -6   16.49    5.97
   3   2  -5   27.71    5.19
   3   2  -4   34.10    4.79
   3   2  -3   98.44    8.30
   3   2  -2  315.69   22.97
   3   2  -1  115.08    6.79
   3   2   0  115.06    5.25
   3   2   1   90.85   11.59
   3   2   2   96.58    6.13
   3   2   3  108.01    6.95
   3   2   4  120.91   13.68
   3   2   5   87.58    6.94
   3   2   6   60.30    6.41
   3   2   7   71.54    9.02
   3   2   8   45.38   12.62
   3   2   9   55.73   13.51
   3   2  10    0.65   13.37
   3   2  11   15.95   14.21
   3   3 -13   17.56   14.05
   3   3 -12   73.63   16.61
   3   3 -11   31.10   12.22
   3   3 -10   24.46   11.02
   3   3  -9   60.14    8.01
   3   3  -8   63.03    9.23
   3   3  -7  340.12   11.02
   3   3  -6   54.34    9.91
   3   3  -5   77.84    5.96
   3   3  -4  128.65    5.79
   3   3  -3  221.51   14.48
   3   3  -2  421.51    6.95
   3   3  -1  269.28   12.34
   3   3   0  240.32    8.24
   3   3   1  185.03    5.13
   3   3   2  180.84   23.70
   3   3   3  179.99    8.05
   3   3   4  195.85   10.21
   3   3   5  149.34   19.66
   3   3   6  100.08   13.63
   3   3   7  139.05    9.19
   3   3   8   76.46    8.01
   3   3   9  112.11   15.69
   3   3  10   40.24   14.43
   3   3  11   59.40   15.85
   3   4  -9   40.59   11.34
   3   4  -8   49.89    7.29
   3   4  -7  203.67    9.99
   3   4  -6   20.14    9.48
   3   4  -5   25.26   10.55
   3   4  -4   42.80   10.68
   3   4  -3   93.99   12.61
   3   4  -2  250.17   15.67
   3   4  -1  172.43    4.04
   3   4   0  131.16    4.01
   3   4   1  100.34    4.91
   3   4   2   79.80   10.36
   3   4   3   75.86    8.28
   3   4   4   67.37    7.91
   3   4   5   63.62    7.59
   3   4   6   38.76    7.09
   3   4   7   71.50    8.88
   3   4   8   56.55    8.53
   3   4   9   78.02   15.08
   3   4  10   22.04   13.86
   3   4  11   37.41   15.81
   3   5  -8   12.89   11.11
   3   5  -7   51.25   11.86
   3   5  -6   30.71   12.38
   3   5  -5   30.01   11.44
   3   5  -4   32.54   10.99
   3   5  -3   39.03   10.95
   3   5  -2   41.12   11.65
   3   5  -1   60.61   12.23
   3   5   0   86.51   12.79
   3   5   1   24.31   10.40
   3   5   2   56.22   12.31
   3   5   3   56.00   11.34
   3   5   4   73.96    7.64
   3   5   5   58.82   10.90
   3   5   6   18.39    7.35
   3   5   7   60.36    8.21
   3   5   8   28.91    8.62
   3   5   9   21.62   12.91
   3   5  10    1.33   13.64
   3   6  -8   20.09   12.25
   3   6  -7   65.31   14.03
   3   6  -6   27.66   11.83
   3   6  -5   19.15   12.44
   3   6  -4   22.34   11.42
   3   6  -3   44.26   12.98
   3   6  -2  100.81   14.28
   3   6  -1  120.26   15.24
   3   6   0   79.81   14.04
   3   6   1   51.87   13.98
   3   6   2   52.46   13.05
   3   6   3   36.03   12.92
   3   6   4   44.32   13.35
   3   6   5   46.13   13.54
   3   6   6   14.21   12.30
   3   6   7   56.07   14.37
   3   6   8   45.26   13.73
   3   7  -7   41.63   13.50
   3   7  -6   27.27   13.69
   3   7  -5   21.35   12.56
   3   7  -4   17.22   12.75
   3   7  -3   33.46   13.55
   3   7  -2   42.73   14.81
   3   7  -1   52.53   14.59
   3   7   0   41.70   14.82
   3   7   1   18.92   12.98
   3   7   2   57.48   15.51
   3   7   3   30.43   13.48
   3   7   4   46.30   15.59
   3   7   5   20.28   13.87
   3   7   6    1.10   13.52
   3   7   7   23.70   14.59
   3   8  -2    0.01   14.97
   3   8  -1   20.96   16.67
   4  -8  -1   12.84   14.93
   4  -8   0   13.08   13.18
   4  -8   1   13.46   13.52
   4  -8   2   15.15   13.17
   4  -8   4   17.15   13.49
   4  -7  -5   17.39   14.23
   4  -7  -4    8.91   14.36
   4  -7  -3   16.41   13.27
   4  -7  -2   54.94   14.82
   4  -7  -1   37.52   14.37
   4  -7   0   19.09   12.48
   4  -7   1   42.07   12.79
   4  -7   2   26.46    8.40
   4  -7   3   24.64    8.42
   4  -7   4   13.72    8.51
   4  -7   5   28.47   13.10
   4  -7   6   20.01   12.87
   4  -6  -8   32.77   16.06
   4  -6  -7   98.11   16.97
   4  -6  -6   24.81   13.88
   4  -6  -5   14.63   14.00
   4  -6  -4   13.81   12.21
   4  -6  -3   43.12   13.75
   4  -6  -2   87.50   14.58
   4  -6  -1   83.46   14.45
   4  -6   0   74.29   12.99
   4  -6   1   56.47    8.61
   4  -6   2   48.95   10.29
   4  -6   3   50.81    9.99
   4  -6   4   23.22    7.12
   4  -6   5   14.36   12.50
   4  -6   6   12.98   12.31
   4  -6   7   34.01   14.23
   4  -6   8   44.89   15.42
   4  -5 -10    0.44   14.58
   4  -5  -9    8.13   13.96
   4  -5  -8    7.63   14.10
   4  -5  -7   79.78   14.82
   4  -5  -6   54.03   15.18
   4  -5  -5   58.19   14.23
   4  -5  -4   24.57   11.71
   4  -5  -3   29.46   11.33
   4  -5  -2   27.86   11.32
   4  -5  -1   51.04   10.90
   4  -5   0   28.05    6.45
   4  -5   1   32.72    6.66
   4  -5   2   48.72   11.01
   4  -5   3   99.55   11.27
   4  -5   4   45.84   10.65
   4  -5   5   38.41   12.44
   4  -5   6    3.82   12.14
   4  -5   7   45.91   14.48
   4  -5   8   29.08   13.39
   4  -5   9   11.81   14.23
   4  -4 -11    2.64   13.20
   4  -4 -10    7.44   10.76
   4  -4  -9   31.55   14.54
   4  -4  -8   47.66   13.41
   4  -4  -7  106.88   15.46
   4  -4  -6   36.90   11.60
   4  -4  -5    8.61   10.71
   4  -4  -4   13.31   11.21
   4  -4  -3   41.26   11.74
   4  -4  -2  111.14    5.69
   4  -4  -1   84.76    6.94
   4  -4   0   54.39   10.26
   4  -4   1   46.55   11.00
   4  -4   2   50.31    9.78
   4  -4   3   46.61    9.92
   4  -4   4    5.44    7.58
   4  -4   5   10.95    6.46
   4  -4   6    6.04   11.42
   4  -4   7   79.54   15.82
   4  -4   8   73.52   16.31
   4  -4   9   54.26   15.58
   4  -3 -11    1.92   12.88
   4  -3 -10   12.32   12.13
   4  -3  -9   34.20   12.20
   4  -3  -8   84.04   14.40
   4  -3  -7  232.98   16.98
   4  -3  -6  157.44   16.24
   4  -3  -5   88.15   12.28
   4  -3  -4   84.06   13.77
   4  -3  -3  120.21   13.06
   4  -3  -2  145.96   10.88
   4  -3  -1  160.26   12.73
   4  -3   0  138.44   13.72
   4  -3   1  118.23   11.01
   4  -3   2  185.86   13.68
   4  -3   3  222.67   12.33
   4  -3   4  130.46   11.21
   4  -3   5   91.27    7.07
   4  -3   6   39.23   13.40
   4  -3   7  108.89   15.96
   4  -3   8   81.09   14.80
   4  -3   9   77.68   16.72
   4  -3  10   27.04   15.76
   4  -2 -11    6.25    9.62
   4  -2 -10    3.97    7.10
   4  -2  -9   23.39    7.43
   4  -2  -8   32.17    7.20
   4  -2  -7  190.13    9.86
   4  -2  -6   93.85   11.93
   4  -2  -5   45.52   11.74
   4  -2  -4   33.84    9.02
   4  -2  -3   51.84   11.12
   4  -2  -2   40.93    9.58
   4  -2  -1   73.19   11.24
   4  -2   0   76.39    9.49
   4  -2   1   30.95    3.76
   4  -2   2  133.07    5.61
   4  -2   3  104.67    6.75
   4  -2   4   77.73    8.19
   4  -2   5   35.43    6.64
   4  -2   6    8.63    5.30
   4  -2   7   84.33   14.25
   4  -2   8   48.63   14.43
   4  -2   9   50.86   15.84
   4  -2  10   25.52   14.14
   4  -1 -13    2.91    8.27
   4  -1 -12  104.64   55.19
   4  -1 -11    7.32    7.16
   4  -1 -10   16.17    6.76
   4  -1  -9   52.21   18.01
   4  -1  -8   48.65    6.87
   4  -1  -7  130.00   12.34
   4  -1  -6   49.62    9.47
   4  -1  -5   13.94    7.99
   4  -1  -4   10.28    9.78
   4  -1  -3   41.17    2.62
   4  -1  -2   78.90   10.59
   4  -1  -1  114.10    9.81
   4  -1   0  120.06    6.16
   4  -1   1   20.81    4.07
   4  -1   2  122.81   10.35
   4  -1   3   60.32    7.49
   4  -1   4   25.99    7.63
   4  -1   5   16.30    4.79
   4  -1   6    1.01   10.23
   4  -1   7  128.80   14.94
   4  -1   8   71.12   13.19
   4  -1   9   61.17   12.05
   4  -1  10   28.21   14.06
   4   1 -13    0.16   18.23
   4   1 -12    4.93   19.33
   4   1 -11    7.38   14.64
   4   1 -10   25.99    8.14
   4   1  -9   50.57    7.63
   4   1  -8   60.96   20.27
   4   1  -7  128.60   13.71
   4   1  -6   57.22   10.67
   4   1  -5   11.15    9.86
   4   1  -4    2.93    7.53
   4   1  -3   22.25    6.79
   4   1  -2   54.19    9.77
   4   1  -1  116.43   10.87
   4   1   0   95.18    5.07
   4   1   1    3.65    2.32
   4   1   2  184.80   15.67
   4   1   3   61.94    5.91
   4   1   4   34.34    6.50
   4   1   5    9.47    5.10
   4   1   6    2.76    5.48
   4   1   7   87.47   11.57
   4   1   8   99.08   15.51
   4   1   9   72.28   14.33
   4   1  10   26.52   15.02
   4   2 -11    2.25   18.04
   4   2 -10    2.94    7.99
   4   2  -9   16.69   12.25
   4   2  -8   45.18    7.70
   4   2  -7   83.35   18.60
   4   2  -6  120.16   14.50
   4   2  -5   51.80    9.41
   4   2  -4   59.12   20.46
   4   2  -3   25.88    4.15
   4   2  -2   26.12    9.32
   4   2  -1   58.55   11.24
   4   2   0   44.68    2.57
   4   2   1    3.29    3.02
   4   2   2  187.94   13.45
   4   2   3   81.24    7.68
   4   2   4   78.60    7.40
   4   2   5   25.76    7.09
   4   2   6    7.18    6.18
   4   2   7   78.02   13.74
   4   2   8   44.60   13.43
   4   2   9   35.85   13.80
   4   2  10   31.64   15.17
   4   3 -10   28.80   12.48
   4   3  -9   42.95   12.43
   4   3  -8   43.93   12.47
   4   3  -7   94.96   13.30
   4   3  -6  169.05   15.88
   4   3  -5  109.59   13.18
   4   3  -4   58.53   12.83
   4   3  -3   89.47   12.57
   4   3  -2   87.01   12.65
   4   3  -1  125.68   13.14
   4   3   0  113.40   13.06
   4   3   1    7.14    5.31
   4   3   2  302.98   10.88
   4   3   3  149.40    8.77
   4   3   4  135.71    9.04
   4   3   5   71.98    7.71
   4   3   6   32.62    7.09
   4   3   7  109.01    9.44
   4   3   8   94.58   15.10
   4   3   9   52.39   15.13
   4   3  10   43.70   16.10
   4   4  -9   32.67   12.99
   4   4  -8   44.19   12.68
   4   4  -7   50.55   13.21
   4   4  -6   37.20   12.57
   4   4  -5    4.50   10.55
   4   4  -4    4.75   10.57
   4   4  -3   21.64   10.94
   4   4  -2   41.71   11.88
   4   4  -1   54.33   12.76
   4   4   0   40.74    5.69
   4   4   1    1.97    4.92
   4   4   2  108.37    7.71
   4   4   3   19.92    6.01
   4   4   4   11.70    6.53
   4   4   5    6.44    6.68
   4   4   6    5.10    6.84
   4   4   7   66.51    8.75
   4   4   8   37.26   13.70
   4   4   9   23.77   12.85
   4   4  10   17.19   14.71
   4   5  -9    2.14   12.72
   4   5  -8   22.88   12.49
   4   5  -7   30.42   12.54
   4   5  -6   78.74   15.21
   4   5  -5   51.57   13.61
   4   5  -4   11.85   11.87
   4   5  -3   38.00   12.19
   4   5  -2   17.03   12.49
   4   5  -1    7.36   11.09
   4   5   0    4.54   11.01
   4   5   1    1.99   10.59
   4   5   2  137.27   15.12
   4   5   3   76.10   13.59
   4   5   4   54.11   13.05
   4   5   5   12.38   12.17
   4   5   6   13.03   11.86
   4   5   7   21.18   12.09
   4   6  -8   21.99   13.76
   4   6  -7   28.54   14.02
   4   6  -6   27.23   13.52
   4   6  -5   13.77   12.98
   4   6  -4    4.24   12.97
   4   6  -3   40.52   14.11
   4   6  -2   42.44   13.80
   4   6  -1   35.24   13.33
   4   6   0   26.58   11.88
   4   6   1    7.11   12.35
   4   6   2   99.78   15.22
   4   6   3   24.36   13.25
   4   6   4    6.90   12.25
   4   6   5    8.83   12.92
   4   6   6    7.28   13.25
   4   6   7   34.61   13.95
   4   7  -5   22.79   14.73
   4   7  -4    7.49   14.53
   4   7  -3   35.70   14.87
   4   7  -2   23.18   14.95
   4   7  -1   26.14   14.83
   4   7   0    4.89   13.29
   4   7   1    1.83   13.13
   4   7   2   45.89   16.42
   4   7   3   26.43   15.52
   5  -7  -2   21.17   14.54
   5  -7  -1   20.04   15.76
   5  -7   0    1.45   13.62
   5  -7   1    6.98   12.91
   5  -7   2   39.24   14.01
   5  -7   4    4.94   14.14
   5  -7   5    0.42   14.51
   5  -6  -6   57.49   17.19
   5  -6  -5   14.58   14.18
   5  -6  -4    9.59   13.33
   5  -6  -3   20.79   13.32
   5  -6  -2   16.93   12.55
   5  -6  -1   21.07   12.56
   5  -6   0   18.92   12.26
   5  -6   1    0.64   12.43
   5  -6   2   53.95   13.44
   5  -6   3   21.94   11.77
   5  -6   4   12.12   11.00
   5  -6   5    9.36   14.21
   5  -6   6    6.46   14.75
   5  -5  -8   14.68   13.98
   5  -5  -7   21.11   14.40
   5  -5  -6   89.24   15.62
   5  -5  -5   54.55   15.31
   5  -5  -4   17.66   12.65
   5  -5  -3   36.19   12.70
   5  -5  -2    9.05   12.56
   5  -5  -1    4.93   12.06
   5  -5   0    3.15   11.82
   5  -5   1    1.36   10.94
   5  -5   2  120.04   14.60
   5  -5   3   50.52   11.77
   5  -5   4   28.97   10.56
   5  -5   5   10.43   13.36
   5  -5   6    6.07   14.69
   5  -5   7   12.09   14.90
   5  -4 -10   28.22   15.70
   5  -4  -9   21.03   14.86
   5  -4  -8   18.14   14.17
   5  -4  -7   11.21   12.87
   5  -4  -6   73.52   14.82
   5  -4  -5    8.12   13.23
   5  -4  -4   18.30   12.63
   5  -4  -3   41.41   13.28
   5  -4  -2   37.55   12.45
   5  -4  -1   58.22   12.37
   5  -4   0   53.37   12.54
   5  -4   1    4.82    9.90
   5  -4   2   90.49   12.78
   5  -4   3   12.69    9.74
   5  -4   4    3.86    9.06
   5  -4   5    5.60   12.42
   5  -4   6   12.13   14.08
   5  -4   7   35.98   15.33
   5  -3 -11   67.17   15.70
   5  -3 -10   56.58   15.35
   5  -3  -9   42.20   14.05
   5  -3  -8   49.97   14.35
   5  -3  -7   53.85   14.35
   5  -3  -6  217.41   18.81
   5  -3  -5  107.05   14.44
   5  -3  -4   52.87   12.00
   5  -3  -3   97.36   14.64
   5  -3  -2   85.86   12.53
   5  -3  -1   73.77   12.58
   5  -3   0   50.61   11.26
   5  -3   1    7.02    9.71
   5  -3   2  260.66   16.29
   5  -3   3  117.00   12.39
   5  -3   4   64.04    9.79
   5  -3   5   26.98    7.46
   5  -3   6   24.36   14.14
   5  -3   7   58.60   16.12
   5  -3   8   34.38   15.81
   5  -2 -11   59.43   15.14
   5  -2 -10   35.45   11.04
   5  -2  -9   19.29   12.61
   5  -2  -8   44.54   12.25
   5  -2  -7   29.95   11.84
   5  -2  -6  130.42   15.09
   5  -2  -5   45.66   12.40
   5  -2  -4   17.88   10.90
   5  -2  -3   60.41   12.07
   5  -2  -2   58.73   12.06
   5  -2  -1   21.04    9.82
   5  -2   0   17.40    9.31
   5  -2   1   10.86    9.23
   5  -2   2  198.76   14.76
   5  -2   3   60.48   10.56
   5  -2   4   24.06    9.62
   5  -2   5   14.13    6.77
   5  -2   6   16.09   13.19
   5  -2   7   22.39   14.44
   5  -2   8   16.54   14.71
   5  -1 -11   69.51   15.25
   5  -1 -10   54.20   12.89
   5  -1  -9   29.85   11.23
   5  -1  -8   18.29   10.51
   5  -1  -7   20.19   10.22
   5  -1  -6   66.88   12.24
   5  -1  -5   33.46   12.02
   5  -1  -4    6.02   10.18
   5  -1  -3   91.44   13.10
   5  -1  -2   93.34   12.16
   5  -1  -1   46.58   10.51
   5  -1   0   31.61    9.02
   5  -1   1   30.41    9.01
   5  -1   2  180.99   12.90
   5  -1   3   31.31    8.60
   5  -1   4   12.28    5.92
   5  -1   5   17.35    5.60
   5  -1   6   23.10   10.62
   5  -1   7   41.08   10.88
   5  -1   8    1.19   13.88
   5   1 -10   28.17   11.68
   5   1  -9   30.56    8.14
   5   1  -8   26.17    7.24
   5   1  -7   19.38   10.30
   5   1  -6   61.73   12.36
   5   1  -5   24.09   11.73
   5   1  -4    1.18   10.39
   5   1  -3   87.62   13.04
   5   1  -2   95.54   12.89
   5   1  -1   42.76   10.80
   5   1   0   47.11    9.81
   5   1   1   26.86    9.19
   5   1   2  195.92   14.45
   5   1   3   36.95    9.57
   5   1   4    4.36    6.91
   5   1   5   18.36    6.47
   5   1   6   17.78   10.16
   5   1   7   22.35   10.34
   5   1   8   37.76   11.43
   5   1   9   42.88   14.29
   5   2 -11   34.03   15.48
   5   2 -10   12.94   12.99
   5   2  -9    4.87   12.32
   5   2  -8   14.19   12.38
   5   2  -7   45.14   13.07
   5   2  -6   39.84   13.13
   5   2  -5   61.79   11.85
   5   2  -4   37.81   12.84
   5   2  -3  114.77   13.09
   5   2  -2   95.49   14.53
   5   2  -1    8.91   10.55
   5   2   0    5.62   10.02
   5   2   1    0.36    9.71
   5   2   2  206.94   15.83
   5   2   3   50.61    7.73
   5   2   4   21.10    7.45
   5   2   5   13.44    6.86
   5   2   6    8.49    7.12
   5   2   7   20.47   12.62
   5   2   8    6.16   13.46
   5   2   9   19.21   13.74
   5   3 -10   15.58   13.69
   5   3  -9   48.05   15.21
   5   3  -8   28.11   14.03
   5   3  -7  102.61   15.47
   5   3  -6   74.85   15.23
   5   3  -5  106.64   16.13
   5   3  -4   47.71   13.07
   5   3  -3  168.60   17.80
   5   3  -2  109.03   14.23
   5   3  -1   44.83   12.57
   5   3   0   42.80   11.68
   5   3   1   36.67   12.10
   5   3   2  258.30   11.74
   5   3   3  104.93    9.40
   5   3   4   68.65    8.45
   5   3   5   38.12    8.08
   5   3   6   31.97    7.87
   5   3   7   28.18   13.13
   5   3   8   41.03   14.50
   5   3   9   30.55   14.50
   5   4 -10   31.62   14.80
   5   4  -9   27.33   15.73
   5   4  -8    2.54   12.83
   5   4  -7   35.22   14.00
   5   4  -6   29.94   13.22
   5   4  -5   25.29   12.67
   5   4  -4    8.13   12.05
   5   4  -3   78.36   13.87
   5   4  -2   61.96   14.64
   5   4  -1   36.42   12.94
   5   4   0   24.61   12.89
   5   4   1   27.90   11.51
   5   4   2   85.33   15.01
   5   4   3   19.46   11.53
   5   4   4    7.51    6.99
   5   4   5    4.42    7.49
   5   4   6   11.04    8.24
   5   4   7   23.26   12.81
   5   5  -8    4.45   14.49
   5   5  -7   24.05   15.00
   5   5  -6   17.75   13.99
   5   5  -5   30.02   14.20
   5   5  -4   17.39   14.21
   5   5  -3   82.22   15.67
   5   5  -2   26.90   12.99
   5   5  -1    2.16   12.51
   5   5   0    0.90   12.09
   5   5   1    7.64   12.06
   5   5   2   56.98   13.86
   5   5   3   41.12   13.48
   5   5   4   21.59   13.10
   5   5   5    4.77   12.68
   5   5   6    3.26   12.39
   5   6  -4    9.28   14.26
   5   6  -3   68.66   16.73
   5   6  -2   34.47   14.58
   5   6  -1   34.18   15.15
   5   6   0   22.87   14.06
   5   6   1   23.59   13.91
   5   6   2   48.76   15.26
   5   6   3   33.65   14.82
   5   6   4   16.50   13.95
   6  -6  -2   57.09   17.57
   6  -6  -1   37.28   15.96
   6  -6   0   27.65   14.33
   6  -6   1   22.29   13.54
   6  -6   2   50.56   14.99
   6  -5  -5   11.73   13.99
   6  -5  -4    0.04   13.11
   6  -5  -3   35.89   15.49
   6  -5  -2    9.30   12.24
   6  -5  -1    5.04   12.94
   6  -5   0    4.19   12.97
   6  -5   1    8.21   12.73
   6  -5   2   44.13   13.27
   6  -5   3   10.45   11.67
   6  -4  -7   23.97   15.11
   6  -4  -6   20.26   15.71
   6  -4  -5   10.39   13.74
   6  -4  -4   22.99   13.93
   6  -4  -3   84.90   15.60
   6  -4  -2   71.23   15.78
   6  -4  -1   69.27   14.91
   6  -4   0   41.54   13.26
   6  -4   1   45.25   13.00
   6  -4   2   67.07   14.24
   6  -4   3   30.76   11.35
   6  -4   5   21.46   14.99
   6  -3  -8    8.05   14.77
   6  -3  -7   42.22   14.63
   6  -3  -6   46.47   15.10
   6  -3  -5   55.53   15.59
   6  -3  -4   67.29   14.87
   6  -3  -3  144.86   17.19
   6  -3  -2   71.53   13.78
   6  -3  -1   47.42   12.83
   6  -3   0   31.24   11.60
   6  -3   1   66.66   13.11
   6  -3   2  114.58   14.00
   6  -3   3   72.89   13.02
   6  -3   4   61.21   11.91
   6  -3   5   32.32   15.16
   6  -3   6   32.47   15.96
   6  -2  -9   18.31   15.85
   6  -2  -8   11.78   14.31
   6  -2  -7   42.15   13.52
   6  -2  -6   31.65   13.94
   6  -2  -5   38.83   13.33
   6  -2  -4   29.16   13.36
   6  -2  -3   77.03   13.57
   6  -2  -2   31.62   11.97
   6  -2  -1   32.49   11.81
   6  -2   0   24.03   11.64
   6  -2   1   54.19   11.69
   6  -2   2   69.57   12.93
   6  -2   3   36.10   11.13
   6  -2   4   40.81   11.14
   6  -2   5   11.63   13.64
   6  -2   6   14.01   14.39
   6  -1 -10   23.01   11.69
   6  -1  -9   29.95   15.07
   6  -1  -8    9.41   11.12
   6  -1  -7   24.41   12.47
   6  -1  -6   27.22   11.46
   6  -1  -5   30.03   10.76
   6  -1  -4   48.49   12.61
   6  -1  -3   99.76   13.66
   6  -1  -2   88.18   13.06
   6  -1  -1   99.53   13.52
   6  -1   0   90.42   12.33
   6  -1   1   75.52   13.10
   6  -1   2   67.35   12.25
   6  -1   3   46.69   10.55
   6  -1   4   51.92   10.48
   6  -1   5   20.78    8.92
   6  -1   6   32.61   13.33
   6   1 -10   23.89   13.00
   6   1  -9   38.12   15.43
   6   1  -8   17.24   12.94
   6   1  -7   44.07   12.97
   6   1  -6   34.27   13.58
   6   1  -5   56.18   14.15
   6   1  -4   64.84   12.89
   6   1  -3   60.70   11.94
   6   1  -2   78.56    8.95
   6   1  -1  121.35   14.36
   6   1   0  121.89   14.65
   6   1   1   59.69   12.23
   6   1   2   54.34   11.57
   6   1   3   52.27   11.31
   6   1   4   64.12    9.03
   6   1   5   27.58   12.63
   6   1   6   58.67   13.87
   6   1   7   51.66   14.57
   6   2  -9    8.69   14.22
   6   2  -8    5.50   15.18
   6   2  -7   15.76   13.79
   6   2  -6   20.24   14.34
   6   2  -5   20.24   13.65
   6   2  -4   44.03   14.06
   6   2  -3   49.31   14.24
   6   2  -2   51.65   13.29
   6   2  -1   24.99   12.43
   6   2   0   36.33   12.17
   6   2   1   16.50   11.68
   6   2   2   27.45   11.92
   6   2   3   23.77    8.55
   6   2   4   59.06    8.75
   6   2   5   10.56    8.19
   6   2   6   40.45   14.40
   6   2   7   33.32   15.13
   6   3  -8   15.32   15.31
   6   3  -7   40.67   16.46
   6   3  -6   45.04   15.84
   6   3  -5   42.53   15.15
   6   3  -4   57.34   14.98
   6   3  -3   70.98   12.25
   6   3  -2   91.46   16.07
   6   3  -1   57.64   14.71
   6   3   0   67.67   15.11
   6   3   1   56.51   14.09
   6   3   2   51.67    9.16
   6   3   3   47.76    8.80
   6   3   4   86.69   10.20
   6   3   5   11.21    7.95
   6   3   6   37.94   13.19
   6   3   7   52.48   14.59
   6   4  -6   33.95   16.54
   6   4  -5   43.11   16.16
   6   4  -4   54.00   16.65
   6   4  -3   39.43   15.32
   6   4  -2   75.99   15.43
   6   4  -1   58.98   15.71
   6   4   0   73.97   14.53
   6   4   1   21.95   14.51
   6   4   2   29.05   13.22
   6   4   3   17.81   13.86
   6   4   4   44.50   14.36
   6   4   5    3.93   12.80
   6   5  -2   11.86   14.06
   6   5  -1    7.77   15.16
   6   5   0   11.85   15.18
   6   5   1    0.18   14.40
   6   5   2    0.74   14.29
   6   5   3    2.26   13.98
   7  -5   1    8.65   14.65
   7  -5   2    1.58   13.75
   7  -4  -2   36.53   13.87
   7  -4  -1   45.57   15.03
   7  -4   0   45.87   14.83
   7  -4   1   28.15   14.19
   7  -4   2    6.72   12.74
   7  -3  -4   37.90   14.86
   7  -3  -3   10.32   13.98
   7  -3  -2   43.28   14.61
   7  -3  -1   43.96   13.79
   7  -3   0   61.83   15.01
   7  -3   1   38.96   13.94
   7  -3   2   14.07   12.31
   7  -3   3   30.99   13.13
   7  -2  -5   12.86   16.81
   7  -2  -4   11.61   14.26
   7  -2  -3    4.14   13.55
   7  -2  -2   21.11   14.16
   7  -2  -1   12.00   12.08
   7  -2   0   36.09   13.63
   7  -2   1    4.49   12.02
   7  -2   2    9.62   11.93
   7  -2   3    2.70   12.53
   7  -1  -5   27.83   13.96
   7  -1  -4   48.88   15.11
   7  -1  -3    3.88    8.37
   7  -1  -2   19.80   12.32
   7  -1  -1   14.24   12.06
   7  -1   0   45.25   12.38
   7  -1   1    3.50    8.42
   7  -1   2   22.10    8.42
   7  -1   3   12.06   11.03
   7   1  -5   47.36   16.14
   7   1  -4   17.63   11.80
   7   1  -3    3.35   12.54
   7   1  -2   11.00   10.33
   7   1  -1   21.67   12.39
   7   1   0   42.42   12.19
   7   1   1    9.90   12.84
   7   1   2   29.01   13.60
   7   1   3   14.92    7.94
   7   1   4   27.53   15.13
   7   2  -4    4.04   15.08
   7   2  -3    1.29   14.93
   7   2  -2   19.74   14.20
   7   2  -1   16.47   14.03
   7   2   0   34.43   14.65
   7   2   1    7.01   14.18
   7   2   2    8.16    9.61
   7   2   3    9.98    9.07
   7   2   4    8.22    9.41
   7   2   5   13.29   13.76
   7   3  -2   34.10   14.97
   7   3  -1   22.01   15.78
   7   3   0   45.10   15.62
   7   3   1   31.65   14.21
   7   3   2   12.28   13.59
   7   3   3    8.74   13.81
   7   3   4   33.46   14.71
   0   0   0    0.00    0.00
;
_shelx_hkl_checksum              51188
_shelx_shelxl_version_number     2014/7
_olex2_submission_special_instructions 'No special instructions were received'
loop_
_space_group_symop_operation_xyz
'x, y, z'
loop_
_atom_site_label
_atom_site_type_symbol
_atom_site_fract_x
_atom_site_fract_y
_atom_site_fract_z
_atom_site_U_iso_or_equiv
_atom_site_adp_type
_atom_site_occupancy
_atom_site_site_symmetry_order
_atom_site_calc_flag
_atom_site_refinement_flags_posn
_atom_site_refinement_flags_adp
Co1 Co 0.00024(15) 0.00012(14) 0.00024(12) 0.0149(3) Uani 1 1 d . .
O2 O -0.2752(10) -0.0185(8) 0.1309(6) 0.0215(14) Uani 1 1 d . U
N1 N 0.000(2) 0.3201(13) -0.0029(11) 0.018(2) Uani 1 1 d . U
C6 C 0.0007(19) 0.0226(14) 0.4421(11) 0.030(3) Uani 1 1 d . U
H6 H 0.1436 0.0472 0.4183 0.036 Uiso 1 1 calc R .
C7 C -0.1217(14) -0.0066(10) 0.2192(8) 0.0126(16) Uani 1 1 d . U
C1 C -0.1771(15) -0.0093(12) 0.3527(9) 0.023(2) Uani 1 1 d . U
C10 C 0.0939(18) 0.6111(12) -0.1197(10) 0.029(2) Uani 1 1 d . U
H10A H 0.0013 0.6486 -0.1940 0.034 Uiso 1 1 calc R .
H10B H 0.2428 0.6670 -0.1258 0.034 Uiso 1 1 calc R .
C12 C -0.2298(18) 0.5946(13) -0.0051(11) 0.034(2) Uani 1 1 d . U
H12A H -0.2946 0.6315 0.0702 0.041 Uiso 1 1 calc R .
H12B H -0.3217 0.6393 -0.0776 0.041 Uiso 1 1 calc R .
O3 O -0.4937(15) -0.0667(12) 0.7647(8) 0.057(2) Uani 1 1 d . U
C2 C -0.3949(16) -0.0488(12) 0.3867(9) 0.025(2) Uani 1 1 d . U
H2 H -0.5126 -0.0712 0.3249 0.030 Uiso 1 1 calc R .
C11 C -0.2291(16) 0.3821(12) -0.0097(9) 0.024(2) Uani 1 1 d . U
H11A H -0.3031 0.3281 0.0602 0.028 Uiso 1 1 calc R .
H11B H -0.3109 0.3369 -0.0874 0.028 Uiso 1 1 calc R .
C9 C 0.1022(19) 0.4027(13) -0.1183(10) 0.031(2) Uani 1 1 d . U
H9A H 0.2555 0.3686 -0.1165 0.038 Uiso 1 1 calc R .
H9B H 0.0213 0.3507 -0.1943 0.038 Uiso 1 1 calc R .
O1 O 0.0720(12) 0.0026(8) 0.1978(6) 0.0187(16) Uani 1 1 d . U
O4 O -0.1358(13) -0.0001(9) 0.8196(7) 0.0249(17) Uani 1 1 d . U
O1W O 0.3356(10) 0.0252(8) -0.0252(6) 0.0236(14) Uani 1 1 d . .
H1WA H 0.3750 -0.0676 -0.0717 0.035 Uiso 1 1 d GR .
H1WB H 0.4181 0.0220 0.0478 0.035 Uiso 1 1 d GR .
C4 C -0.2562(16) -0.0251(12) 0.6087(9) 0.025(2) Uani 1 1 d . U
C3 C -0.4317(18) -0.0541(12) 0.5138(9) 0.030(2) Uani 1 1 d . U
H3 H -0.5758 -0.0774 0.5362 0.036 Uiso 1 1 calc R .
C5 C -0.0383(19) 0.0173(15) 0.5694(12) 0.031(3) Uani 1 1 d . U
H5 H 0.0803 0.0419 0.6302 0.038 Uiso 1 1 calc R .
C13 C 0.1316(17) 0.3976(12) 0.1065(9) 0.024(2) Uani 1 1 d . U
H13A H 0.2823 0.3571 0.1083 0.029 Uiso 1 1 calc R .
H13B H 0.0694 0.3514 0.1823 0.029 Uiso 1 1 calc R .
N2 N 0.0040(19) 0.6870(12) -0.0045(10) 0.014(2) Uani 1 1 d . U
C14 C 0.1348(18) 0.6101(13) 0.1028(10) 0.030(2) Uani 1 1 d . U
H14A H 0.0798 0.6540 0.1793 0.036 Uiso 1 1 calc R .
H14B H 0.2877 0.6594 0.1021 0.036 Uiso 1 1 calc R .
C8 C -0.2986(16) -0.0297(12) 0.7421(9) 0.0214(19) Uani 1 1 d . U
loop_
_atom_site_aniso_label
_atom_site_aniso_U_11
_atom_site_aniso_U_22
_atom_site_aniso_U_33
_atom_site_aniso_U_23
_atom_site_aniso_U_13
_atom_site_aniso_U_12
Co1 0.0147(5) 0.0219(6) 0.0082(5) -0.0014(3) 0.0009(4) 0.0012(4)
O2 0.0224(18) 0.0222(17) 0.0202(18) 0.0005(12) 0.0032(13) 0.0015(13)
N1 0.018(2) 0.018(2) 0.017(2) 0.0002(13) 0.0017(13) 0.0010(13)
C6 0.029(3) 0.030(3) 0.030(3) -0.0004(14) 0.0029(14) 0.0019(14)
C7 0.013(2) 0.012(2) 0.012(2) -0.0004(13) 0.0019(13) 0.0006(13)
C1 0.022(2) 0.023(2) 0.022(2) 0.0009(13) 0.0022(14) 0.0019(13)
C10 0.029(3) 0.028(2) 0.029(3) -0.0001(14) 0.0032(14) 0.0018(14)
C12 0.034(3) 0.034(3) 0.035(3) 0.0002(14) 0.0033(14) 0.0015(14)
O3 0.055(3) 0.064(3) 0.054(3) 0.000(2) 0.007(2) 0.002(2)
C2 0.024(2) 0.026(2) 0.024(2) 0.0003(13) 0.0022(14) 0.0008(14)
C11 0.023(2) 0.024(2) 0.024(2) -0.0004(13) 0.0022(14) 0.0011(13)
C9 0.031(3) 0.032(3) 0.032(3) 0.0007(14) 0.0035(14) 0.0017(14)
O1 0.0185(19) 0.0186(19) 0.0191(19) 0.0004(12) 0.0021(13) 0.0011(13)
O4 0.024(2) 0.025(2) 0.025(2) -0.0003(13) 0.0029(13) 0.0012(13)
O1W 0.019(4) 0.024(3) 0.027(4) -0.010(3) -0.005(3) 0.004(3)
C4 0.024(2) 0.025(2) 0.025(2) 0.0000(13) 0.0024(14) 0.0023(14)
C3 0.029(3) 0.030(2) 0.030(3) 0.0000(14) 0.0029(14) 0.0017(14)
C5 0.032(3) 0.032(3) 0.031(3) -0.0001(14) 0.0022(14) 0.0022(14)
C13 0.024(2) 0.024(2) 0.024(2) -0.0004(13) 0.0015(14) 0.0014(14)
N2 0.015(2) 0.015(2) 0.013(2) -0.0002(13) 0.0013(13) 0.0007(13)
C14 0.030(3) 0.030(3) 0.030(3) -0.0001(14) 0.0021(14) 0.0023(14)
C8 0.021(2) 0.022(2) 0.021(2) -0.0003(13) 0.0029(14) 0.0018(13)
loop_
_atom_type_symbol
_atom_type_description
_atom_type_scat_dispersion_real
_atom_type_scat_dispersion_imag
_atom_type_scat_source
C C 0.0033 0.0016 'International Tables Vol C Tables 4.2.6.8 and 6.1.1.4'
H H 0.0000 0.0000 'International Tables Vol C Tables 4.2.6.8 and 6.1.1.4'
N N 0.0061 0.0033 'International Tables Vol C Tables 4.2.6.8 and 6.1.1.4'
O O 0.0106 0.0060 'International Tables Vol C Tables 4.2.6.8 and 6.1.1.4'
Co Co 0.3494 0.9721 'International Tables Vol C Tables 4.2.6.8 and 6.1.1.4'
loop_
_geom_angle_atom_site_label_1
_geom_angle_atom_site_label_2
_geom_angle_atom_site_label_3
_geom_angle
_geom_angle_site_symmetry_1
_geom_angle_site_symmetry_3
O2 Co1 N1 91.1(3) . .
O1 Co1 O2 58.7(3) . .
O1 Co1 N1 90.6(3) . .
O1 Co1 N2 91.5(3) . 1_545
O4 Co1 O2 109.2(3) 1_554 .
O4 Co1 N1 88.3(4) 1_554 .
O4 Co1 O1 167.9(3) 1_554 .
O4 Co1 O1W 100.9(3) 1_554 .
O4 Co1 N2 89.8(3) 1_554 1_545
O1W Co1 O2 149.8(2) . .
O1W Co1 N1 88.3(3) . .
O1W Co1 O1 91.1(3) . .
O1W Co1 N2 90.7(3) . 1_545
N2 Co1 O2 90.8(3) 1_545 .
N2 Co1 N1 177.7(5) 1_545 .
C7 O2 Co1 85.9(5) . .
C11 N1 Co1 110.7(7) . .
C11 N1 C9 106.6(9) . .
C9 N1 Co1 111.4(7) . .
C13 N1 Co1 110.1(7) . .
C13 N1 C11 111.0(9) . .
C13 N1 C9 106.9(10) . .
C1 C6 H6 120.7 . .
C1 C6 C5 118.6(9) . .
C5 C6 H6 120.7 . .
O2 C7 C1 119.9(8) . .
O1 C7 O2 121.0(8) . .
O1 C7 C1 119.1(8) . .
C6 C1 C7 115.5(8) . .
C6 C1 C2 121.7(9) . .
C2 C1 C7 122.8(8) . .
H10A C10 H10B 107.8 . .
C9 C10 H10A 109.0 . .
C9 C10 H10B 109.0 . .
C9 C10 N2 113.1(8) . .
N2 C10 H10A 109.0 . .
N2 C10 H10B 109.0 . .
H12A C12 H12B 107.9 . .
C11 C12 H12A 109.3 . .
C11 C12 H12B 109.3 . .
C11 C12 N2 111.8(8) . .
N2 C12 H12A 109.3 . .
N2 C12 H12B 109.3 . .
C1 C2 H2 120.4 . .
C3 C2 C1 119.3(9) . .
C3 C2 H2 120.4 . .
N1 C11 C12 110.9(7) . .
N1 C11 H11A 109.5 . .
N1 C11 H11B 109.5 . .
C12 C11 H11A 109.5 . .
C12 C11 H11B 109.5 . .
H11A C11 H11B 108.0 . .
N1 C9 H9A 109.6 . .
N1 C9 H9B 109.6 . .
C10 C9 N1 110.2(8) . .
C10 C9 H9A 109.6 . .
C10 C9 H9B 109.6 . .
H9A C9 H9B 108.1 . .
C7 O1 Co1 94.4(5) . .
C8 O4 Co1 149.7(7) . 1_556
Co1 O1W H1WA 111.7 . .
Co1 O1W H1WB 111.1 . .
H1WA O1W H1WB 107.2 . .
C3 C4 C5 117.2(10) . .
C3 C4 C8 120.6(9) . .
C5 C4 C8 122.2(9) . .
C2 C3 C4 121.4(10) . .
C2 C3 H3 119.3 . .
C4 C3 H3 119.3 . .
C6 C5 C4 121.9(9) . .
C6 C5 H5 119.1 . .
C4 C5 H5 119.1 . .
N1 C13 H13A 109.7 . .
N1 C13 H13B 109.7 . .
N1 C13 C14 110.0(8) . .
H13A C13 H13B 108.2 . .
C14 C13 H13A 109.7 . .
C14 C13 H13B 109.7 . .
C10 N2 Co1 114.2(7) . 1_565
C10 N2 C12 104.9(9) . .
C12 N2 Co1 111.4(7) . 1_565
C14 N2 Co1 112.9(7) . 1_565
C14 N2 C10 106.1(9) . .
C14 N2 C12 106.7(9) . .
C13 C14 H14A 108.6 . .
C13 C14 H14B 108.6 . .
N2 C14 C13 114.5(8) . .
N2 C14 H14A 108.6 . .
N2 C14 H14B 108.6 . .
H14A C14 H14B 107.6 . .
O3 C8 C4 116.4(9) . .
O4 C8 O3 126.9(10) . .
O4 C8 C4 116.6(9) . .
loop_
_geom_bond_atom_site_label_1
_geom_bond_atom_site_label_2
_geom_bond_distance
_geom_bond_site_symmetry_2
Co1 O2 2.268(6) .
Co1 N1 2.270(9) .
Co1 O1 2.109(7) .
Co1 O4 2.020(8) 1_554
Co1 O1W 2.069(6) .
Co1 N2 2.224(9) 1_545
O2 C7 1.257(10) .
N1 C11 1.470(16) .
N1 C9 1.527(16) .
N1 C13 1.443(15) .
C6 H6 0.9300 .
C6 C1 1.377(14) .
C6 C5 1.399(13) .
C7 C1 1.493(12) .
C7 O1 1.212(10) .
C1 C2 1.411(13) .
C10 H10A 0.9700 .
C10 H10B 0.9700 .
C10 C9 1.482(13) .
C10 N2 1.505(15) .
C12 H12A 0.9700 .
C12 H12B 0.9700 .
C12 C11 1.510(12) .
C12 N2 1.523(16) .
O3 C8 1.239(12) .
C2 H2 0.9300 .
C2 C3 1.394(13) .
C11 H11A 0.9700 .
C11 H11B 0.9700 .
C9 H9A 0.9700 .
C9 H9B 0.9700 .
O4 Co1 2.020(8) 1_556
O4 C8 1.234(11) .
O1W H1WA 0.8848 .
O1W H1WB 0.8841 .
C4 C3 1.403(14) .
C4 C5 1.435(14) .
C4 C8 1.467(13) .
C3 H3 0.9300 .
C5 H5 0.9300 .
C13 H13A 0.9700 .
C13 H13B 0.9700 .
C13 C14 1.507(12) .
N2 Co1 2.224(9) 1_565
N2 C14 1.449(16) .
C14 H14A 0.9700 .
C14 H14B 0.9700 .
loop_
_geom_torsion_atom_site_label_1
_geom_torsion_atom_site_label_2
_geom_torsion_atom_site_label_3
_geom_torsion_atom_site_label_4
_geom_torsion
_geom_torsion_site_symmetry_1
_geom_torsion_site_symmetry_4
Co1 O2 C7 C1 -180.0(7) . .
Co1 O2 C7 O1 -1.8(7) . .
Co1 N1 C11 C12 177.1(6) . .
Co1 N1 C9 C10 178.5(6) . .
Co1 N1 C13 C14 178.8(6) . .
Co1 O4 C8 O3 9.1(19) 1_556 .
Co1 O4 C8 C4 -169.3(8) 1_556 .
Co1 N2 C14 C13 176.9(6) 1_565 .
O2 C7 C1 C6 -174.0(7) . .
O2 C7 C1 C2 8.3(12) . .
O2 C7 O1 Co1 1.9(8) . .
N1 C13 C14 N2 1.6(10) . .
C6 C1 C2 C3 0.6(13) . .
C7 C1 C2 C3 178.1(8) . .
C1 C6 C5 C4 1.6(14) . .
C1 C7 O1 Co1 -179.9(6) . .
C1 C2 C3 C4 -1.4(13) . .
C10 N2 C14 C13 -57.3(11) . .
C12 N2 C14 C13 54.2(11) . .
C11 N1 C9 C10 57.5(11) . .
C11 N1 C13 C14 -58.2(11) . .
C11 C12 N2 Co1 179.4(6) . 1_565
C11 C12 N2 C10 55.3(10) . .
C11 C12 N2 C14 -56.9(11) . .
C9 N1 C11 C12 -61.6(10) . .
C9 N1 C13 C14 57.7(10) . .
C9 C10 N2 Co1 177.9(7) . 1_565
C9 C10 N2 C12 -59.8(11) . .
C9 C10 N2 C14 52.9(11) . .
O1 C7 C1 C6 7.7(12) . .
O1 C7 C1 C2 -169.9(8) . .
C3 C4 C5 C6 -2.4(13) . .
C3 C4 C8 O3 2.5(13) . .
C3 C4 C8 O4 -179.0(8) . .
C5 C6 C1 C7 -178.4(8) . .
C5 C6 C1 C2 -0.7(14) . .
C5 C4 C3 C2 2.3(13) . .
C5 C4 C8 O3 179.5(8) . .
C5 C4 C8 O4 -1.9(13) . .
C13 N1 C11 C12 54.5(11) . .
C13 N1 C9 C10 -61.2(11) . .
N2 C10 C9 N1 4.2(10) . .
N2 C12 C11 N1 4.2(9) . .
C8 C4 C3 C2 179.5(8) . .
C8 C4 C5 C6 -179.6(9) . .
loop_
_smtbx_masks_void_nr
_smtbx_masks_void_average_x
_smtbx_masks_void_average_y
_smtbx_masks_void_average_z
_smtbx_masks_void_volume
_smtbx_masks_void_count_electrons
1 -0.570 0.476 0.495 139.0 46.9
