#------------------------------------------------------------------------------
#$Date: 2019-11-24 04:12:18 +0200 (Sun, 24 Nov 2019) $
#$Revision: 236652 $
#$URL: file:///home/coder/svn-repositories/cod/cif/8/00/03/8000362.cif $
#------------------------------------------------------------------------------
#
# This file is available in the Crystallography Open Database (COD),
# http://www.crystallography.net/
#
# All data on this site have been placed in the public domain by the
# contributors.
#
data_8000362
loop_
_publ_author_name
'Andrzejewski, Micha\/l'
'Katrusiak, Andrzej'
_publ_section_title
;
 Piezochromic Porous Metal-Organic Framework.
;
_journal_issue                   1
_journal_name_full               'The journal of physical chemistry letters'
_journal_page_first              279
_journal_page_last               284
_journal_paper_doi               10.1021/acs.jpclett.6b02458
_journal_volume                  8
_journal_year                    2017
_chemical_formula_moiety         'C14 H18 Co N2 O5'
_chemical_formula_sum            'C14 H18 Co N2 O5'
_chemical_formula_weight         353.23
_chemical_name_common            AMU1
_chemical_name_systematic
;
Co(1,4-benzenedicarboxylate)(1,4-diazabicyclo[2.2.2]octane)H2O
;
_space_group_crystal_system      triclinic
_space_group_IT_number           1
_space_group_name_Hall           'P 1'
_space_group_name_H-M_alt        'P 1'
_atom_sites_solution_hydrogens   mixed
_atom_sites_solution_primary     dual
_audit_creation_date             2016-07-12
_audit_creation_method
;
Olex2 1.2
(compiled 2016.02.19 svn.r3266 for OlexSys, GUI svn.r5155)
;
_cell_angle_alpha                89.535(5)
_cell_angle_beta                 95.383(6)
_cell_angle_gamma                93.181(6)
_cell_formula_units_Z            1
_cell_length_a                   6.0538(5)
_cell_length_b                   7.0936(5)
_cell_length_c                   10.6609(7)
_cell_measurement_reflns_used    3730
_cell_measurement_temperature    210(2)
_cell_measurement_theta_max      58.23
_cell_measurement_theta_min      5.752
_cell_volume                     455.09(6)
_computing_molecular_graphics    'Olex2 (Dolomanov et al., 2009)'
_computing_publication_material  'Olex2 (Dolomanov et al., 2009)'
_computing_structure_refinement  'ShelXL (Sheldrick, 2015)'
_computing_structure_solution    'ShelXD (Sheldrick, 2008)'
_diffrn_ambient_temperature      210(2)
_diffrn_measured_fraction_theta_full 0.913
_diffrn_measured_fraction_theta_max 0.818
_diffrn_measurement_device_type  'multiwire proportional'
_diffrn_measurement_method       'phi and omega scans'
_diffrn_radiation_monochromator  graphite
_diffrn_radiation_type           MoK\a
_diffrn_radiation_wavelength     0.71073
_diffrn_reflns_av_R_equivalents  0.0637
_diffrn_reflns_av_unetI/netI     0.1415
_diffrn_reflns_Laue_measured_fraction_full 0.913
_diffrn_reflns_Laue_measured_fraction_max 0.818
_diffrn_reflns_limit_h_max       7
_diffrn_reflns_limit_h_min       -8
_diffrn_reflns_limit_k_max       9
_diffrn_reflns_limit_k_min       -9
_diffrn_reflns_limit_l_max       13
_diffrn_reflns_limit_l_min       -13
_diffrn_reflns_number            6281
_diffrn_reflns_point_group_measured_fraction_full 0.913
_diffrn_reflns_point_group_measured_fraction_max 0.818
_diffrn_reflns_theta_full        26.000
_diffrn_reflns_theta_max         29.115
_diffrn_reflns_theta_min         2.876
_exptl_absorpt_coefficient_mu    0.963
_exptl_absorpt_correction_T_max  0.908
_exptl_absorpt_correction_T_min  0.891
_exptl_absorpt_correction_type   multi-scan
_exptl_absorpt_process_details
;
Data were collected and reduced by program CrysAlisPro, 
and SCALE3 ABSPACK was used for absorption correction
;
_exptl_crystal_colour            purple
_exptl_crystal_density_diffrn    1.289
_exptl_crystal_description       plate
_exptl_crystal_F_000             183
_exptl_crystal_size_max          0.3
_exptl_crystal_size_mid          0.1
_exptl_crystal_size_min          0.1
_refine_diff_density_max         0.469
_refine_diff_density_min         -0.386
_refine_diff_density_rms         0.087
_refine_ls_abs_structure_details
;
 Refined as a perfect inversion twin.
;
_refine_ls_abs_structure_Flack   0.5
_refine_ls_extinction_method     none
_refine_ls_goodness_of_fit_ref   0.982
_refine_ls_hydrogen_treatment    constr
_refine_ls_matrix_type           full
_refine_ls_number_parameters     200
_refine_ls_number_reflns         3730
_refine_ls_number_restraints     81
_refine_ls_restrained_S_all      0.974
_refine_ls_R_factor_all          0.0825
_refine_ls_R_factor_gt           0.0625
_refine_ls_shift/su_max          0.000
_refine_ls_shift/su_mean         0.000
_refine_ls_structure_factor_coef Fsqd
_refine_ls_weighting_details
'w=1/[\s^2^(Fo^2^)+(0.0718P)^2^] where P=(Fo^2^+2Fc^2^)/3'
_refine_ls_weighting_scheme      calc
_refine_ls_wR_factor_gt          0.1445
_refine_ls_wR_factor_ref         0.1529
_reflns_Friedel_coverage         1.000
_reflns_Friedel_fraction_full    0.913
_reflns_Friedel_fraction_max     0.818
_reflns_number_gt                2705
_reflns_number_total             3730
_reflns_threshold_expression     'I > 2\s(I)'
_cod_data_source_file            jz6b02458_si_004.cif
_cod_data_source_block           210K_P1
_cod_database_code               8000362
_shelx_space_group_comment
;
The symmetry employed for this shelxl refinement is uniquely defined
by the following loop, which should always be used as a source of
symmetry information in preference to the above space-group names.
They are only intended as comments.
;
_olex2_refinement_description
;
1. Fixed Uiso
 At 1.2 times of:
  All C(H) groups, All C(H,H) groups
 At 1.5 times of:
  All O(H,H) groups
2. Uiso/Uaniso restraints and constraints
Uanis(N1) \\sim Ueq: with sigma of 0.001 and sigma for terminal atoms of 0.002
Uanis(O2) \\sim Ueq, Uanis(C7) \\sim Ueq, Uanis(O1) \\sim Ueq, Uanis(C1) \\sim
Ueq, Uanis(C2) \\sim Ueq, Uanis(C3) \\sim Ueq, Uanis(C4) \\sim Ueq, Uanis(C8)
\\sim Ueq, Uanis(O3) \\sim Ueq, Uanis(O4) \\sim Ueq, Uanis(C5) \\sim Ueq,
Uanis(C6) \\sim Ueq: with sigma of 0.001 and sigma for terminal atoms of 0.002
3.a Rotating group:
 O1W(H1WA,H1WB)
3.b Secondary CH2 refined with riding coordinates:
 C10(H10A,H10B), C12(H12A,H12B), C14(H14A,H14B), C11(H11A,H11B), C9(H9A,H9B),
 C13(H13A,H13B)
3.c Aromatic/amide H refined with riding coordinates:
 C6(H6), C2(H2), C3(H3), C5(H5)
;
_shelx_shelxl_version_number     2014/7
_shelx_hkl_file
;
  -8  -1   0   36.82   23.66
  -8  -1   1   15.05   26.44
  -8  -1   2   12.89   23.81
  -8  -1   3    5.55   23.57
  -7  -4   0   15.61   26.39
  -7  -4   1    1.10   25.25
  -7  -4   2   30.27   26.88
  -7  -4   3   29.18   26.41
  -7  -3  -4   29.76   25.94
  -7  -3  -3   13.67   23.59
  -7  -3  -2   26.87   23.97
  -7  -3  -1   24.47   23.43
  -7  -3   0   53.50   23.66
  -7  -3   1   10.84   21.91
  -7  -3   2   40.78   23.86
  -7  -3   3    8.61   22.48
  -7  -3   4    1.07   21.61
  -7  -3   5   40.65   24.87
  -7  -3   6   20.11   24.54
  -7  -2  -5    4.97   25.35
  -7  -2  -4    4.18   24.19
  -7  -2  -3   23.97   21.42
  -7  -2  -2   22.08   20.66
  -7  -2  -1    3.47   19.95
  -7  -2   0   48.49   14.55
  -7  -2   1    2.10   13.42
  -7  -2   2   52.05   14.79
  -7  -2   3    4.38   20.21
  -7  -2   4    1.36   20.37
  -7  -2   5   17.17   21.79
  -7  -2   6    0.26   22.70
  -7  -1  -6   45.61   26.79
  -7  -1  -5    9.65   22.77
  -7  -1  -4   45.59   23.17
  -7  -1  -1   23.08   17.69
  -7  -1   0   67.36   21.63
  -7  -1   1   33.52   19.35
  -7  -1   2   55.57   20.20
  -7  -1   3   11.51   17.12
  -7  -1   4   42.90   17.95
  -7  -1   5   47.75   21.65
  -7  -1   6   16.58   12.06
  -7  -1   7   36.57   21.77
  -7   1  -3   26.54   14.36
  -7   1  -2   19.22   18.22
  -7   1  -1   19.72   18.05
  -7   1   0   83.37   20.32
  -7   1   1   49.34   22.15
  -7   1   2   29.05   36.89
  -7   1   3   42.64   13.85
  -7   1   4   24.38   13.85
  -7   1   5   62.00   15.26
  -7   1   6   26.05   26.71
  -7   1   7   42.32   23.73
  -7   2  -2    2.52   22.69
  -7   2  -1    4.60   23.85
  -7   2   0   44.17   22.36
  -7   2   1   15.60   15.55
  -7   2   2   34.93   14.98
  -7   2   3    1.86   15.83
  -7   2   4    1.78   16.26
  -7   2   5   10.13   15.87
  -7   2   6    2.92   17.21
  -7   3  -2   15.09   23.52
  -7   3  -1   51.08   24.87
  -7   3   0   71.14   27.83
  -7   3   1   58.29   24.18
  -7   3   2   73.98   17.18
  -7   3   3   47.13   16.92
  -7   3   4   29.33   17.02
  -7   3   5   47.97   26.56
  -7   4   0   51.34   22.45
  -7   4   1   46.22   23.79
  -7   4   2   56.76   24.69
  -7   4   3   30.04   25.72
  -7   4   4   33.30   24.95
  -7   5   0   15.45   24.05
  -7   5   1   10.36   24.85
  -6  -5  -2    2.96   26.39
  -6  -5  -1    1.99   26.46
  -6  -5   0   13.88   25.32
  -6  -5   1   25.29   27.46
  -6  -5   2   13.11   25.37
  -6  -5   3   17.71   25.70
  -6  -5   4   10.01   25.68
  -6  -4  -5   44.45   26.46
  -6  -4  -4  101.91   26.93
  -6  -4  -3   44.07   24.21
  -6  -4  -2   39.44   23.79
  -6  -4  -1   77.30   25.20
  -6  -4   0  126.23   26.10
  -6  -4   1   90.83   25.59
  -6  -4   2  102.76   26.20
  -6  -4   3   66.49   24.52
  -6  -4   4   74.24   25.11
  -6  -4   5   38.15   24.33
  -6  -4   6   57.62   26.44
  -6  -4   7   42.79   26.34
  -6  -3  -6   46.03   27.57
  -6  -3  -5   38.61   24.21
  -6  -3  -4  114.90   26.10
  -6  -3  -3  109.58   25.13
  -6  -3  -2   88.77   23.47
  -6  -3  -1   88.23   23.29
  -6  -3   0   86.44   24.30
  -6  -3   1   93.06   23.35
  -6  -3   2  111.43   24.28
  -6  -3   3  121.26   24.75
  -6  -3   4   75.87   23.28
  -6  -3   5   73.95   24.12
  -6  -3   6   64.86   24.47
  -6  -3   7   61.59   24.42
  -6  -3   8   35.43   24.76
  -6  -2  -7   73.78   27.01
  -6  -2  -6   56.33   25.53
  -6  -2  -5    6.72   22.12
  -6  -2  -4   71.85   22.48
  -6  -2  -3   65.96   20.52
  -6  -2  -2   47.61   20.13
  -6  -2  -1   31.45   19.40
  -6  -2   0   43.54   12.25
  -6  -2   1   59.64   13.39
  -6  -2   2   73.61   13.11
  -6  -2   3  106.53   13.91
  -6  -2   4   65.50   13.21
  -6  -2   5   36.96   12.77
  -6  -2   6   20.41   12.69
  -6  -2   7   25.94   19.95
  -6  -2   8    1.11   21.03
  -6  -2   9   67.76   25.44
  -6  -1  -8   64.11   26.15
  -6  -1  -7  122.96   26.63
  -6  -1  -6  101.31   23.73
  -6  -1  -5   65.03   20.01
  -6  -1  -4  102.70   22.12
  -6  -1  -3  115.92   19.24
  -6  -1  -2  105.02   18.67
  -6  -1  -1  116.58   15.64
  -6  -1   0  171.95   14.52
  -6  -1   1  201.80   22.94
  -6  -1   2  150.68   13.89
  -6  -1   3  157.79   14.13
  -6  -1   4   85.24   12.91
  -6  -1   5   60.15   11.68
  -6  -1   6   48.29   12.60
  -6  -1   7   90.88   14.22
  -6  -1   8   49.69   13.20
  -6  -1   9   67.74   25.75
  -6  -1  10   33.58   21.88
  -6   1  -3   77.30   18.17
  -6   1  -2  149.32   23.10
  -6   1  -1   96.69   11.61
  -6   1   0  103.59   11.33
  -6   1   1   94.51   31.38
  -6   1   2  133.41   12.75
  -6   1   3  178.69   15.93
  -6   1   4   77.11   13.54
  -6   1   5   51.94   12.87
  -6   1   6   31.95   16.46
  -6   1   7  112.32   23.50
  -6   1   8   56.30   24.61
  -6   1   9   54.42   18.55
  -6   2  -3   57.91   22.98
  -6   2  -2  140.53   25.49
  -6   2  -1   65.46   17.26
  -6   2   0   43.68   25.60
  -6   2   1   36.39   13.52
  -6   2   2   93.30   15.18
  -6   2   3  153.51   17.14
  -6   2   4   71.21   16.85
  -6   2   5   33.97   14.31
  -6   2   6   31.98   15.11
  -6   2   7   65.68   16.46
  -6   2   8    8.33   15.71
  -6   3  -4   79.23   23.19
  -6   3  -3  123.37   24.82
  -6   3  -2  231.49   17.35
  -6   3  -1  102.94   15.23
  -6   3   0   66.05   14.84
  -6   3   1   78.95   15.51
  -6   3   2  156.98   17.47
  -6   3   3  260.19   20.38
  -6   3   4  116.78   16.89
  -6   3   5  116.40   18.83
  -6   3   6   92.58   18.42
  -6   3   7  103.14   18.60
  -6   3   8   33.06   18.34
  -6   4  -4   26.44   25.35
  -6   4  -3   47.72   24.76
  -6   4  -2  176.81   17.77
  -6   4  -1   81.32   22.38
  -6   4   0   81.15   16.16
  -6   4   1  103.91   16.42
  -6   4   2  121.74   26.01
  -6   4   3  137.03   18.00
  -6   4   4   44.96   22.11
  -6   4   5   47.11   17.19
  -6   4   6   54.43   23.28
  -6   4   7   74.85   18.74
  -6   5  -4    8.32   25.46
  -6   5  -3   25.68   24.68
  -6   5  -2  126.34   19.02
  -6   5  -1   17.77   15.87
  -6   5   0   11.86   15.89
  -6   5   1   20.65   16.80
  -6   5   2   42.62   16.58
  -6   5   3  112.40   30.37
  -6   5   4   15.04   17.14
  -6   5   5   32.56   17.49
  -6   6  -2  140.78   28.68
  -6   6  -1   44.83   18.67
  -6   6   0   40.01   16.69
  -6   6   1   78.90   18.96
  -6   6   2   84.72   19.04
  -5  -6  -2  116.46   30.99
  -5  -6  -1   17.93   25.75
  -5  -6   0   43.03   27.74
  -5  -6   1   42.77   26.56
  -5  -6   2   61.60   29.11
  -5  -6   3   95.85   28.90
  -5  -6   4   22.10   27.62
  -5  -5  -5    6.38   24.64
  -5  -5  -4   40.95   24.04
  -5  -5  -3   43.44   25.06
  -5  -5  -2  148.79   27.20
  -5  -5  -1   15.42   22.58
  -5  -5   0    7.68   22.70
  -5  -5   1   22.86   22.58
  -5  -5   2   54.17   23.15
  -5  -5   3  119.51   28.92
  -5  -5   4   48.02   23.88
  -5  -5   5   61.27   26.74
  -5  -5   6   27.26   23.45
  -5  -5   7   52.00   26.56
  -5  -4  -6   30.86   18.01
  -5  -4  -5    1.08   23.41
  -5  -4  -4   28.08   21.96
  -5  -4  -3   40.00   21.01
  -5  -4  -2  162.02   26.68
  -5  -4  -1   28.42   21.37
  -5  -4   0   63.50   21.91
  -5  -4   1   50.03   22.57
  -5  -4   2   97.55   23.02
  -5  -4   3  145.99   24.05
  -5  -4   4   26.24   22.27
  -5  -4   5   22.03   20.54
  -5  -4   6   36.34   23.50
  -5  -4   7   59.60   23.05
  -5  -4   8   20.42   24.89
  -5  -3  -8  113.75   28.45
  -5  -3  -7   66.70   27.38
  -5  -3  -6   56.97   23.21
  -5  -3  -5   66.61   22.84
  -5  -3  -4   80.71   21.93
  -5  -3  -3  200.23   27.24
  -5  -3  -2  459.88   31.08
  -5  -3  -1   46.89   20.26
  -5  -3   0   54.76   19.35
  -5  -3   1   54.79   11.62
  -5  -3   2  190.07   14.16
  -5  -3   3  338.10   17.08
  -5  -3   4  108.47   12.07
  -5  -3   5  173.99   25.56
  -5  -3   6  163.05   23.99
  -5  -3   7  156.85   26.36
  -5  -3   8   44.95   22.22
  -5  -3   9   76.03   25.39
  -5  -3  10   38.07   25.23
  -5  -2  -8   15.63   24.35
  -5  -2  -7   27.88   23.22
  -5  -2  -6   20.26   22.24
  -5  -2  -5    5.25   19.09
  -5  -2  -4   16.35   18.48
  -5  -2  -3   93.18   19.11
  -5  -2  -2  400.17   28.62
  -5  -2  -1    7.21   10.45
  -5  -2   0   17.37   10.65
  -5  -2   1   22.53    9.93
  -5  -2   2  138.59   13.80
  -5  -2   3  212.30   13.56
  -5  -2   4   35.58   11.55
  -5  -2   5   95.17   11.99
  -5  -2   6  107.22   13.88
  -5  -2   7  102.43   17.05
  -5  -2   8   34.88   12.49
  -5  -2   9   38.50   14.15
  -5  -2  10   36.51   23.43
  -5  -2  11   91.28   27.08
  -5  -1  -9  110.90   27.46
  -5  -1  -8   69.81   21.93
  -5  -1  -7   61.47   21.13
  -5  -1  -6   27.55   17.15
  -5  -1  -5    2.14   11.44
  -5  -1  -4    5.27   16.94
  -5  -1  -3   70.83   17.50
  -5  -1  -2  378.32   12.50
  -5  -1  -1   37.09    6.98
  -5  -1   0   40.83   14.66
  -5  -1   1   67.46   12.16
  -5  -1   2  181.77   13.22
  -5  -1   3  190.06   15.29
  -5  -1   4    9.64   11.14
  -5  -1   5   48.58   10.89
  -5  -1   6  104.47   12.23
  -5  -1   7   81.20   13.54
  -5  -1   8   25.19   31.39
  -5  -1   9   46.89   17.98
  -5  -1  10   52.18   13.16
  -5  -1  11   90.19   15.70
  -5  -1  12   24.23   18.29
  -5   1 -10   14.09   19.23
  -5   1  -9   18.53   13.88
  -5   1  -8   34.27   14.55
  -5   1  -7   63.18   17.69
  -5   1  -6    1.39   17.29
  -5   1  -5    5.48   10.18
  -5   1  -4    7.35    9.92
  -5   1  -3   25.18    4.66
  -5   1  -2  246.85   14.60
  -5   1  -1   20.05    4.96
  -5   1   0   54.48    5.94
  -5   1   1   53.36    6.48
  -5   1   2  119.81    8.35
  -5   1   3   85.42   16.85
  -5   1   4   16.85    8.57
  -5   1   5   36.40    8.73
  -5   1   6  102.96   20.58
  -5   1   7   63.92   14.57
  -5   1   8   62.16   12.93
  -5   1   9   49.73   16.25
  -5   1  10   53.10   17.67
  -5   1  11   79.99   25.59
  -5   2  -9   11.52   20.25
  -5   2  -8    8.85   19.59
  -5   2  -7   55.16   19.26
  -5   2  -6   20.80   16.86
  -5   2  -5   13.04   13.19
  -5   2  -4   56.49   11.86
  -5   2  -3  108.05    8.73
  -5   2  -2  364.65   13.35
  -5   2  -1    2.99    6.99
  -5   2   0   40.98    7.08
  -5   2   1   43.23   11.58
  -5   2   2   89.26   13.49
  -5   2   3   92.72   13.89
  -5   2   4   43.51   13.71
  -5   2   5   83.35   13.38
  -5   2   6  200.68   18.61
  -5   2   7   67.19   15.94
  -5   2   8   80.97   16.84
  -5   2   9   52.28   17.77
  -5   2  10   52.66   43.89
  -5   3  -4  107.66   13.11
  -5   3  -3  232.42   31.87
  -5   3  -2  508.79   30.97
  -5   3  -1    6.65   11.31
  -5   3   0   84.70   13.11
  -5   3   1   95.63   24.81
  -5   3   2  160.85   15.66
  -5   3   3  205.53   17.89
  -5   3   4  140.30   23.74
  -5   3   5  176.45   17.84
  -5   3   6  344.26   21.10
  -5   3   7  101.37   17.81
  -5   3   8  105.19   19.84
  -5   3   9   84.63   17.87
  -5   3  10   88.03   20.45
  -5   4  -4    7.80   12.80
  -5   4  -3   27.07   13.52
  -5   4  -2  176.66   17.03
  -5   4  -1    0.07   11.96
  -5   4   0   68.12   13.60
  -5   4   1   70.16   14.26
  -5   4   2   56.80   14.02
  -5   4   3   50.67   13.81
  -5   4   4    0.08   23.90
  -5   4   5    6.69   14.65
  -5   4   6   55.07   18.02
  -5   4   7   69.30   17.73
  -5   4   8   65.41   17.19
  -5   4   9   51.60   18.12
  -5   5  -4   44.93   15.33
  -5   5  -3  102.81   18.34
  -5   5  -2  226.98   35.33
  -5   5  -1    5.53   13.75
  -5   5   0   10.69   13.11
  -5   5   1   15.10   20.74
  -5   5   2   23.89   14.15
  -5   5   3   69.39   16.21
  -5   5   4   53.90   15.80
  -5   5   5   68.31   16.80
  -5   5   6  165.76   34.05
  -5   5   7   46.24   19.10
  -5   5   8   33.85   25.58
  -5   6  -5   17.98   24.23
  -5   6  -4    1.67   16.10
  -5   6  -3   32.14   15.92
  -5   6  -2  113.27   17.85
  -5   6  -1    7.13   14.99
  -5   6   0   52.05   15.70
  -5   6   1   71.23   16.29
  -5   6   2   67.46   16.98
  -5   6   3   50.44   16.11
  -5   6   4   20.72   20.22
  -5   6   5   24.04   16.26
  -5   6   6   89.30   19.32
  -5   7  -4   26.15   17.19
  -5   7  -3   32.14   16.84
  -5   7  -2   72.84   19.06
  -5   7  -1    4.01   16.84
  -5   7   0   10.42   16.29
  -5   7   1   12.91   21.22
  -5   7   2    7.39   16.64
  -5   7   3   35.70   25.02
  -5   7   4   25.13   23.74
  -5   8   1    6.74   24.30
  -4  -7  -2   83.38   28.71
  -4  -7  -1    0.33   23.59
  -4  -7   0   32.22   25.37
  -4  -7   1   23.27   24.05
  -4  -7   2   49.56   27.00
  -4  -7   3   40.99   28.12
  -4  -6  -5   20.72   26.18
  -4  -6  -4   35.82   25.34
  -4  -6  -3   37.19   24.54
  -4  -6  -2  146.74   26.86
  -4  -6  -1   14.62   22.15
  -4  -6   0   48.74   23.97
  -4  -6   1   54.43   23.47
  -4  -6   2   60.85   25.73
  -4  -6   3   45.41   23.02
  -4  -6   4   15.54   23.14
  -4  -6   5   29.57   23.54
  -4  -6   6   78.44   19.14
  -4  -6   7   75.06   25.79
  -4  -6   8   80.16   29.68
  -4  -5  -7   42.17   26.15
  -4  -5  -6   25.37   22.51
  -4  -5  -5   23.45   22.76
  -4  -5  -4   51.33   24.05
  -4  -5  -3  104.60   23.66
  -4  -5  -2  189.32   27.98
  -4  -5  -1   14.76   20.14
  -4  -5   0    0.41   19.17
  -4  -5   1   22.59   21.16
  -4  -5   2   37.19   21.58
  -4  -5   3   55.94   22.17
  -4  -5   4   41.80   21.61
  -4  -5   5  100.01   23.64
  -4  -5   6  125.53   34.92
  -4  -5   7   52.74   16.52
  -4  -5   8   34.56   35.71
  -4  -5   9    3.84   23.05
  -4  -5  10    6.49   25.01
  -4  -4  -8   95.71   27.98
  -4  -4  -7  100.03   25.65
  -4  -4  -6    0.84   22.90
  -4  -4  -5    3.55   19.88
  -4  -4  -4   19.10   20.25
  -4  -4  -3   37.62   19.95
  -4  -4  -2  200.27   25.04
  -4  -4  -1    2.68   17.58
  -4  -4   0   57.43   18.78
  -4  -4   1   86.46   21.39
  -4  -4   2   93.21   21.35
  -4  -4   3   30.87   18.98
  -4  -4   4    4.63   18.08
  -4  -4   5   16.57   13.49
  -4  -4   6   45.98   13.57
  -4  -4   7   85.39   17.97
  -4  -4   8   99.34   20.68
  -4  -4   9   46.08   16.29
  -4  -4  10   29.20   16.09
  -4  -3  -9  108.43   27.22
  -4  -3  -8   91.96   27.36
  -4  -3  -7  204.30   29.42
  -4  -3  -6   38.13   21.25
  -4  -3  -5   96.66   12.47
  -4  -3  -4  232.53   24.85
  -4  -3  -3  272.98   25.54
  -4  -3  -2  413.96   28.43
  -4  -3  -1   38.85   17.31
  -4  -3   0  172.03   21.94
  -4  -3   1  188.34   14.76
  -4  -3   2  162.84   11.57
  -4  -3   3  152.35   12.26
  -4  -3   4  108.20   11.45
  -4  -3   5  179.88   12.43
  -4  -3   6  288.05   12.95
  -4  -3   7  174.50   11.70
  -4  -3   8  121.42   15.91
  -4  -3   9   77.93   14.53
  -4  -3  10   16.84   23.12
  -4  -3  11   41.37   24.26
  -4  -2 -11   35.46   28.12
  -4  -2 -10   25.35   17.65
  -4  -2  -9   80.36   18.16
  -4  -2  -8   82.29   16.09
  -4  -2  -7  111.92   15.32
  -4  -2  -6    3.46   11.53
  -4  -2  -5   43.41   19.05
  -4  -2  -4  110.06   19.57
  -4  -2  -3  148.21   20.28
  -4  -2  -2  282.84   10.99
  -4  -2  -1    7.29    9.06
  -4  -2   0   70.97   10.22
  -4  -2   1   84.94   10.76
  -4  -2   2   55.28    9.40
  -4  -2   3   48.64   11.76
  -4  -2   4   29.66    8.74
  -4  -2   5   78.65   16.02
  -4  -2   6  171.25   20.69
  -4  -2   7  138.38   11.40
  -4  -2   8   59.56    9.37
  -4  -2   9   36.88   12.84
  -4  -2  10    1.09   13.02
  -4  -2  11    9.19   19.88
  -4  -1 -11   37.35   26.72
  -4  -1 -10   42.35   22.07
  -4  -1  -9  145.08   19.48
  -4  -1  -8  178.20   17.42
  -4  -1  -7  224.71   24.59
  -4  -1  -6   30.84   16.34
  -4  -1  -5    8.46   14.26
  -4  -1  -4   54.90   15.12
  -4  -1  -3   96.38   14.83
  -4  -1  -2  296.22   23.08
  -4  -1  -1    8.89    8.05
  -4  -1   0  183.56   13.61
  -4  -1   1  219.93   12.97
  -4  -1   2  140.28   14.51
  -4  -1   3   55.72    9.10
  -4  -1   4    5.34   14.19
  -4  -1   5   17.07   10.36
  -4  -1   6   73.48    8.18
  -4  -1   7  277.32   41.42
  -4  -1   8  107.89   13.04
  -4  -1   9   64.63   14.87
  -4  -1  10    2.69    8.55
  -4  -1  11   15.38   17.15
  -4  -1  12   25.87   10.09
  -4  -1  13    2.94   14.93
  -4   1 -11    9.13   22.98
  -4   1 -10    9.87    9.74
  -4   1  -9   89.81   22.00
  -4   1  -8  133.37   20.37
  -4   1  -7  143.93   18.08
  -4   1  -6   14.77   15.66
  -4   1  -5    5.51    3.86
  -4   1  -4   29.04    6.46
  -4   1  -3   64.66    5.38
  -4   1  -2  165.28   10.17
  -4   1  -1   46.16    7.64
  -4   1   0  147.99    7.89
  -4   1   1  155.78    6.89
  -4   1   2  153.56    6.80
  -4   1   3   80.25    5.76
  -4   1   4    5.34   11.48
  -4   1   5   18.01    8.67
  -4   1   6   61.55   14.57
  -4   1   7  356.85   26.70
  -4   1   8  147.26   23.43
  -4   1   9   97.03   20.42
  -4   1  10    3.71   20.82
  -4   1  11   10.14   22.05
  -4   1  12   11.35    4.85
  -4   2 -11   35.53   26.68
  -4   2 -10   15.10   20.25
  -4   2  -9   93.94   23.41
  -4   2  -8   99.60   22.01
  -4   2  -7  185.52   22.32
  -4   2  -6   12.15   15.00
  -4   2  -5   73.24   10.19
  -4   2  -4  108.42    7.85
  -4   2  -3  184.48   12.65
  -4   2  -2  250.29    9.06
  -4   2  -1   52.10    7.10
  -4   2   0  120.99    6.31
  -4   2   1  121.54   11.72
  -4   2   2   99.18    4.04
  -4   2   3   87.98    5.43
  -4   2   4   72.47    5.29
  -4   2   5   76.66   13.83
  -4   2   6  121.10   14.77
  -4   2   7  320.83   27.93
  -4   2   8   48.63   18.83
  -4   2   9   56.96   20.63
  -4   2  10    6.09   21.61
  -4   2  11   28.98   22.57
  -4   3 -11   60.55   24.45
  -4   3 -10   19.69   22.12
  -4   3  -9  119.33   22.43
  -4   3  -8  136.26   22.67
  -4   3  -7  187.23   20.99
  -4   3  -6   62.86   16.49
  -4   3  -5  146.94   10.46
  -4   3  -4  191.83   11.23
  -4   3  -3  309.66   10.52
  -4   3  -2  346.48   11.14
  -4   3  -1  186.47    6.11
  -4   3   0  237.11   28.55
  -4   3   1  276.33   16.86
  -4   3   2  236.56   31.87
  -4   3   3  185.71   14.41
  -4   3   4  158.10    9.77
  -4   3   5  145.30   15.05
  -4   3   6  214.18   17.57
  -4   3   7  395.34   20.23
  -4   3   8  110.51   16.73
  -4   3   9   60.00   15.56
  -4   3  10   20.52   15.77
  -4   3  11   20.18   17.11
  -4   4  -5   18.99   17.15
  -4   4  -4    6.91   11.27
  -4   4  -3   63.09   13.21
  -4   4  -2   83.75   12.69
  -4   4  -1   85.61   18.21
  -4   4   0  101.75   12.08
  -4   4   1  149.53   15.32
  -4   4   2  204.62   15.97
  -4   4   3   54.58   13.15
  -4   4   4    6.19   12.27
  -4   4   5    4.96   13.87
  -4   4   6   25.68   14.01
  -4   4   7  217.82   20.97
  -4   4   8   55.74   21.45
  -4   4   9   55.94   16.60
  -4   4  10   38.69   17.85
  -4   5  -6   21.39   19.68
  -4   5  -5   50.41   19.43
  -4   5  -4   70.94   15.20
  -4   5  -3  172.98   17.57
  -4   5  -2  118.62   24.70
  -4   5  -1   52.79   12.82
  -4   5   0   32.99   15.83
  -4   5   1   46.44   12.70
  -4   5   2   50.42   13.19
  -4   5   3   42.93   13.82
  -4   5   4   44.57   14.17
  -4   5   5   48.61   14.79
  -4   5   6   69.48   16.80
  -4   5   7  159.15   21.34
  -4   5   8    8.28   15.85
  -4   5   9    1.70   16.87
  -4   6  -5   30.98   22.48
  -4   6  -4   17.30   13.94
  -4   6  -3  109.02   24.23
  -4   6  -2   97.75   15.50
  -4   6  -1   91.12   15.48
  -4   6   0   86.84   15.27
  -4   6   1  135.16   19.23
  -4   6   2  166.12   17.47
  -4   6   3   72.54   15.04
  -4   6   4   32.71   15.35
  -4   6   5   27.47   15.89
  -4   6   6   43.42   16.56
  -4   6   7  143.08   20.44
  -4   6   8   59.19   18.03
  -4   7  -5   41.76   24.99
  -4   7  -4   47.04   24.99
  -4   7  -3   67.69   16.35
  -4   7  -2   34.85   15.77
  -4   7  -1   41.86   31.72
  -4   7   0   43.54   16.34
  -4   7   1   45.59   15.21
  -4   7   2   91.30   17.35
  -4   7   3   46.06   15.69
  -4   7   4   36.81   16.22
  -4   7   5   26.52   17.26
  -4   7   6   30.09   24.64
  -4   7   7  101.44   29.33
  -4   8   2   28.76   21.46
  -4   8   3   10.99   21.65
  -4   8   4    5.02   21.86
  -4   8   5    1.92   23.29
  -3  -8  -1    1.04   25.49
  -3  -8   0   19.49   24.30
  -3  -8   1   19.34   25.73
  -3  -8   2    8.59   25.80
  -3  -7  -5   27.42   22.72
  -3  -7  -4   65.07   26.30
  -3  -7  -3   64.26   23.88
  -3  -7  -2   87.85   24.12
  -3  -7  -1   33.21   22.19
  -3  -7   0   84.45   24.71
  -3  -7   1   62.08   23.41
  -3  -7   2   70.96   25.28
  -3  -7   3   38.63   21.23
  -3  -7   4   18.16   21.60
  -3  -7   5   24.71   17.18
  -3  -7   6   40.06   18.94
  -3  -6  -7   84.02   28.69
  -3  -6  -6   51.42   23.93
  -3  -6  -5   73.67   24.31
  -3  -6  -4   61.95   22.81
  -3  -6  -3   97.20   23.85
  -3  -6  -2   89.38   24.12
  -3  -6  -1   86.34   22.98
  -3  -6   0  146.16   25.44
  -3  -6   1  194.15   26.75
  -3  -6   2  173.37   26.75
  -3  -6   3   80.63   22.29
  -3  -6   4   48.36   15.86
  -3  -6   5   33.83   15.45
  -3  -6   6   40.45   15.04
  -3  -6   7  165.68   20.21
  -3  -6   8   61.20   17.97
  -3  -6   9   52.44   28.31
  -3  -5  -9   42.99   26.56
  -3  -5  -8   23.70   25.18
  -3  -5  -7   96.52   24.97
  -3  -5  -6   39.97   20.94
  -3  -5  -5   98.77   23.35
  -3  -5  -4  115.09   24.23
  -3  -5  -3  101.89   21.23
  -3  -5  -2   81.60   21.55
  -3  -5  -1   17.59   18.24
  -3  -5   0   89.60   20.37
  -3  -5   1   87.98   19.94
  -3  -5   2   65.87   19.14
  -3  -5   3   39.60   13.82
  -3  -5   4   50.75   14.34
  -3  -5   5   47.04   14.41
  -3  -5   6   41.01   14.17
  -3  -5   7  147.70   17.35
  -3  -5   8    8.68   21.34
  -3  -5   9    9.57   15.70
  -3  -5  10    2.34   23.92
  -3  -5  11    0.26   24.56
  -3  -4 -10   82.37   28.14
  -3  -4  -9  116.50   18.80
  -3  -4  -8   82.33   16.37
  -3  -4  -7  104.59   15.97
  -3  -4  -6   92.22   11.50
  -3  -4  -5   93.94   13.30
  -3  -4  -4  121.61   12.82
  -3  -4  -3  123.87   10.05
  -3  -4  -2  115.62   19.35
  -3  -4  -1  193.97   23.40
  -3  -4   0  224.13   21.39
  -3  -4   1  278.29   23.93
  -3  -4   2  456.07   28.48
  -3  -4   3  136.28   14.96
  -3  -4   4   53.83   12.60
  -3  -4   5   34.28   11.96
  -3  -4   6   12.21   11.54
  -3  -4   7  325.33   20.58
  -3  -4   8   87.31   14.47
  -3  -4   9   80.65   16.07
  -3  -4  10   41.93   15.63
  -3  -4  11   17.85   19.68
  -3  -4  12   50.35   24.05
  -3  -3 -12    2.72   31.08
  -3  -3 -11   50.30   27.03
  -3  -3 -10   75.52   18.93
  -3  -3  -9  148.41   18.48
  -3  -3  -8  127.39   17.21
  -3  -3  -7  173.70   16.01
  -3  -3  -6  175.28   17.65
  -3  -3  -5  241.83   14.52
  -3  -3  -4  342.21    8.75
  -3  -3  -3  309.36   14.42
  -3  -3  -2  275.56    8.33
  -3  -3  -1  312.86   12.44
  -3  -3   0  388.03   25.94
  -3  -3   1  427.82   12.12
  -3  -3   2  699.30   16.28
  -3  -3   3  342.23   10.14
  -3  -3   4  192.13    8.91
  -3  -3   5  163.01    9.24
  -3  -3   6   74.61    8.90
  -3  -3   7  602.23   21.38
  -3  -3   8  100.86   15.84
  -3  -3   9  103.31   10.90
  -3  -3  10   44.39   17.88
  -3  -3  11   30.63   19.61
  -3  -2 -12    2.45   30.02
  -3  -2 -11   48.60   27.78
  -3  -2 -10   12.63   17.11
  -3  -2  -9   54.59   15.51
  -3  -2  -8   89.64   16.88
  -3  -2  -7  109.35   15.56
  -3  -2  -6  112.47   22.78
  -3  -2  -5  157.51   19.25
  -3  -2  -4  243.99   18.73
  -3  -2  -3  168.28   18.00
  -3  -2  -2  140.37    8.94
  -3  -2  -1  136.23   18.60
  -3  -2   0  157.63    8.73
  -3  -2   1  166.92   10.86
  -3  -2   2  622.62   22.74
  -3  -2   3  145.97    8.53
  -3  -2   4   48.59    6.92
  -3  -2   5   49.47    7.20
  -3  -2   6   11.79    6.97
  -3  -2   7  512.65   41.40
  -3  -2   8   41.59    9.69
  -3  -2   9   36.05   11.01
  -3  -2  10   25.54   12.05
  -3  -2  11   24.55   10.61
  -3  -2  12   28.17   22.51
  -3  -2  13   16.19   16.27
  -3  -1 -12   10.29   22.20
  -3  -1 -11   58.98   18.18
  -3  -1 -10   46.71   15.95
  -3  -1  -9  179.79   17.06
  -3  -1  -8  173.03   35.48
  -3  -1  -7  143.48   14.20
  -3  -1  -6  150.52   27.55
  -3  -1  -4  218.01   16.68
  -3  -1  -3  210.93   16.15
  -3  -1  -2  213.52   17.93
  -3  -1  -1  235.33   20.20
  -3  -1   0  415.74   14.69
  -3  -1   1  582.22   14.46
  -3  -1   2 1734.41   44.07
  -3  -1   3  315.21   11.55
  -3  -1   4   74.60    6.92
  -3  -1   5   47.55   15.62
  -3  -1   6   13.07    8.12
  -3  -1   7  711.25   64.15
  -3  -1   8  176.55   12.62
  -3  -1   9  169.66   16.67
  -3  -1  10   78.50   52.97
  -3  -1  12   86.23   26.32
  -3  -1  13   19.09   18.62
  -3   1 -11   34.21   14.68
  -3   1 -10   57.66   13.80
  -3   1  -9  145.81   15.13
  -3   1  -8  121.49   20.44
  -3   1  -7   74.98   12.82
  -3   1  -5  146.33   10.47
  -3   1  -3  162.10   30.00
  -3   1  -2  239.45   17.12
  -3   1  -1  171.54   11.33
  -3   1   0  393.38   17.25
  -3   1   1  543.72   14.69
  -3   1   2 1585.10   69.86
  -3   1   3  298.66   29.78
  -3   1   4   54.35    6.54
  -3   1   5   39.85   13.19
  -3   1   6   26.53    4.29
  -3   1   7  406.94  162.08
  -3   1   8  132.87   11.06
  -3   1   9   57.32   12.08
  -3   1  10   95.94   16.87
  -3   1  11   45.93   19.85
  -3   1  12   16.60    8.60
  -3   2 -11   26.56   23.03
  -3   2 -10   27.90   21.25
  -3   2  -9   44.85   20.54
  -3   2  -8  105.18   19.59
  -3   2  -7   72.45   18.45
  -3   2  -6   75.86   15.63
  -3   2  -5  128.21    8.87
  -3   2  -4  442.66   15.35
  -3   2  -3  139.80    7.75
  -3   2  -2  146.84    8.87
  -3   2  -1  106.83    6.95
  -3   2   0  180.21    5.85
  -3   2   1  206.99   16.23
  -3   2   2  878.10   23.18
  -3   2   3  157.26    7.63
  -3   2   4   69.29    7.69
  -3   2   5   87.94    7.45
  -3   2   6   36.72   15.77
  -3   2   7  355.46   26.93
  -3   2   8   61.86   18.48
  -3   2   9   37.12   20.25
  -3   2  10   59.69   23.40
  -3   2  11   27.12   22.50
  -3   2  12   27.27   24.68
  -3   2  13   52.71   25.44
  -3   3 -11   58.46   24.57
  -3   3 -10   53.13   22.43
  -3   3  -9  159.85   22.86
  -3   3  -8  147.40   21.34
  -3   3  -7   98.12   17.84
  -3   3  -6  158.06   17.65
  -3   3  -5  267.87   19.91
  -3   3  -4  618.01   13.69
  -3   3  -3  282.03   10.60
  -3   3  -2  318.73   21.60
  -3   3  -1  205.13    6.03
  -3   3   0  402.79   16.38
  -3   3   1  363.22   15.29
  -3   3   2  963.13   26.47
  -3   3   3  318.35   13.81
  -3   3   4  225.14   21.70
  -3   3   5  202.43   13.84
  -3   3   6  143.63   30.86
  -3   3   7  487.42   21.31
  -3   3   8  134.74   23.26
  -3   3   9   74.11   16.04
  -3   3  10  138.58   17.74
  -3   3  11   79.10   17.20
  -3   3  12   90.57   28.16
  -3   4 -11    8.55   22.67
  -3   4 -10    6.32   20.84
  -3   4  -9   90.37   21.46
  -3   4  -8   62.25   18.59
  -3   4  -7   57.17   16.37
  -3   4  -6   71.24   15.26
  -3   4  -5  143.99   11.28
  -3   4  -4  259.57   11.84
  -3   4  -3  104.85    8.12
  -3   4  -2  186.67   13.23
  -3   4  -1  109.78   12.21
  -3   4   0  331.53   37.80
  -3   4   1  350.25   29.88
  -3   4   2  772.91   22.86
  -3   4   3  241.39    9.04
  -3   4   4  108.31   14.19
  -3   4   5   56.80   12.17
  -3   4   6   58.24   12.34
  -3   4   7  254.26   27.94
  -3   4   8  178.83   34.29
  -3   4   9  129.25   17.10
  -3   4  10  150.28   19.80
  -3   4  11   94.07   20.03
  -3   4  12   48.98   27.24
  -3   5  -9   17.06   21.41
  -3   5  -8   65.78   20.04
  -3   5  -7   24.49   16.51
  -3   5  -6   28.75   13.88
  -3   5  -5   82.06   12.35
  -3   5  -4  192.79   15.25
  -3   5  -3   21.70   11.45
  -3   5  -2   30.08   11.54
  -3   5  -1   33.62   10.82
  -3   5   0   76.61   12.34
  -3   5   1   38.87   11.38
  -3   5   2  155.65   14.22
  -3   5   3   59.84   12.73
  -3   5   4   75.94   12.71
  -3   5   5   34.05   12.92
  -3   5   6   44.89   14.52
  -3   5   7   91.70   21.59
  -3   5   8   25.45   14.12
  -3   5   9    5.72   14.97
  -3   5  10   39.53   19.12
  -3   5  11    1.14   25.96
  -3   6  -5  110.26   23.60
  -3   6  -4  185.62   18.06
  -3   6  -3   97.24   25.50
  -3   6  -2  151.20   15.27
  -3   6  -1  116.87   14.62
  -3   6   0  184.95   15.75
  -3   6   1  182.80   16.55
  -3   6   2  325.09   30.13
  -3   6   3  162.07   16.24
  -3   6   4  145.07   36.66
  -3   6   5   53.23   15.02
  -3   6   6   78.30   15.79
  -3   6   7  155.97   19.05
  -3   6   8  118.33   18.90
  -3   6   9   89.88   18.71
  -3   6  10   95.39   30.56
  -3   7  -5   33.12   25.92
  -3   7  -4  101.71   26.32
  -3   7  -3   13.61   13.06
  -3   7  -2   56.44   14.17
  -3   7  -1   40.72   13.62
  -3   7   0   41.37   13.77
  -3   7   1   69.07   15.07
  -3   7   2  131.25   15.82
  -3   7   3   80.35   15.25
  -3   7   4   72.39   14.70
  -3   7   5   19.33   14.88
  -3   7   6   44.44   16.68
  -3   7   7   72.58   17.76
  -3   7   8   60.25   18.99
  -3   8  -3    7.70   24.73
  -3   8  -2    8.62   23.95
  -3   8  -1   16.71   25.02
  -3   8   0   28.61   23.31
  -3   8   1   10.47   24.71
  -3   8   2   37.00   27.10
  -3   8   3   23.26   25.11
  -3   8   4   26.49   24.04
  -3   8   5    8.77   20.71
  -3   8   6   17.95   22.38
  -3   8   7   31.47   24.59
  -2  -8  -5   10.15   25.32
  -2  -8  -4   32.17   25.04
  -2  -8  -3    4.57   23.57
  -2  -8  -2    0.52   22.39
  -2  -8  -1    3.03   23.54
  -2  -8   0    5.13   22.86
  -2  -8   1    5.71   22.93
  -2  -8   2   48.12   23.97
  -2  -8   3   14.40   22.58
  -2  -8   4   23.11   17.98
  -2  -8   5   47.11   24.59
  -2  -7  -7   20.34   24.83
  -2  -7  -6   46.28   22.83
  -2  -7  -5   72.63   25.82
  -2  -7  -4  103.64   24.35
  -2  -7  -3   47.23   22.91
  -2  -7  -2   45.18   22.64
  -2  -7  -1   48.03   22.64
  -2  -7   0   66.08   23.43
  -2  -7   1   71.61   23.14
  -2  -7   2  150.85   24.68
  -2  -7   3   72.13   17.30
  -2  -7   4   47.16   17.82
  -2  -7   5   54.16   15.25
  -2  -7   6   35.55   17.50
  -2  -7   7  108.16   19.21
  -2  -6  -9   45.65   24.68
  -2  -6  -8   28.14   25.20
  -2  -6  -7   12.89   23.19
  -2  -6  -6   96.04   23.48
  -2  -6  -5  145.96   25.47
  -2  -6  -4  219.99   27.15
  -2  -6  -3   89.28   20.58
  -2  -6  -2  103.75   22.65
  -2  -6  -1   93.41   21.56
  -2  -6   0  175.62   25.16
  -2  -6   1  161.83   23.12
  -2  -6   2  348.74   21.29
  -2  -6   3  161.46   17.16
  -2  -6   4  104.98   20.36
  -2  -6   5  119.98   15.94
  -2  -6   6   74.32   15.56
  -2  -6   7  227.71   20.72
  -2  -6   8   72.74   19.84
  -2  -6   9   49.35   16.63
  -2  -5 -10   28.73   25.05
  -2  -5  -9   19.51   17.85
  -2  -5  -8   27.95   16.03
  -2  -5  -7   11.57   14.17
  -2  -5  -6   26.17   13.16
  -2  -5  -5   75.91   17.96
  -2  -5  -4  184.95   22.25
  -2  -5  -3   17.40   17.67
  -2  -5  -2    3.97   16.32
  -2  -5  -1    6.73   16.51
  -2  -5   0   53.38   18.00
  -2  -5   1   17.78    7.16
  -2  -5   2  152.57    9.14
  -2  -5   3   43.58   12.89
  -2  -5   4   72.34   13.26
  -2  -5   5   82.06   13.33
  -2  -5   6  105.68   26.67
  -2  -5   7   89.45   15.22
  -2  -5   8    8.55   20.65
  -2  -5   9    5.78   14.81
  -2  -5  10   15.32   15.50
  -2  -5  11   16.25   23.67
  -2  -4 -12   37.07   32.12
  -2  -4 -11   35.40   21.22
  -2  -4 -10   75.50   19.08
  -2  -4  -9  128.90   18.13
  -2  -4  -8   28.53   14.83
  -2  -4  -7   29.48   13.53
  -2  -4  -6   93.98   14.34
  -2  -4  -5  189.17   14.74
  -2  -4  -4  398.28   31.28
  -2  -4  -3  120.08   19.04
  -2  -4  -2  186.05   20.90
  -2  -4  -1  133.80   17.76
  -2  -4   0  392.90   26.15
  -2  -4   1  309.68   20.73
  -2  -4   2  638.03   12.99
  -2  -4   3  215.84   11.30
  -2  -4   4  145.65    9.90
  -2  -4   5  146.16    7.54
  -2  -4   6  118.40    6.91
  -2  -4   7  222.39   17.26
  -2  -4   8  123.73   11.53
  -2  -4   9   83.58   11.32
  -2  -4  10  144.51   16.62
  -2  -4  11  103.89   24.38
  -2  -4  12   83.77   25.65
  -2  -3 -12   43.77   29.42
  -2  -3 -11   31.69   18.88
  -2  -3 -10  116.85   19.02
  -2  -3  -9  138.23   18.48
  -2  -3  -8   37.46   14.43
  -2  -3  -7   81.60   14.22
  -2  -3  -6  187.97   15.99
  -2  -3  -5  326.87   29.00
  -2  -3  -4  794.36   13.82
  -2  -3  -3  129.07    6.35
  -2  -3  -2  159.94   12.06
  -2  -3  -1   58.27    9.64
  -2  -3   0  415.63   19.78
  -2  -3   1  305.96   23.29
  -2  -3   2  717.19   32.79
  -2  -3   3  263.18   12.38
  -2  -3   4  303.36   12.23
  -2  -3   5  359.98    8.28
  -2  -3   6  300.01   23.57
  -2  -3   7  280.82   24.64
  -2  -3   8  126.25   12.85
  -2  -3   9   95.76   14.37
  -2  -3  10  154.13   15.64
  -2  -3  11  145.69   16.98
  -2  -3  12  106.07   26.70
  -2  -3  13   87.19   18.63
  -2  -2 -12   29.11   18.69
  -2  -2 -11   30.72   17.11
  -2  -2 -10   74.64   17.11
  -2  -2  -9   97.18   16.34
  -2  -2  -8   66.21   14.10
  -2  -2  -7   19.41   15.54
  -2  -2  -6   24.35   11.43
  -2  -2  -5  176.66   12.82
  -2  -2  -4  562.53   15.53
  -2  -2  -3   18.77    4.12
  -2  -2  -2   58.39   15.62
  -2  -2  -1   16.82    4.37
  -2  -2   0  278.97   11.75
  -2  -2   1  127.09    6.43
  -2  -2   2  477.09   12.53
  -2  -2   3   83.56    6.86
  -2  -2   4  142.85    6.76
  -2  -2   5  201.70   13.59
  -2  -2   6  197.63   10.76
  -2  -2   7  143.68   13.39
  -2  -2   8   65.85   12.45
  -2  -2   9   56.25   12.47
  -2  -2  10   66.52   16.01
  -2  -2  11  101.80   15.76
  -2  -2  12   63.14   16.03
  -2  -2  13   42.86   17.04
  -2  -1 -12   54.26   16.50
  -2  -1 -11   40.04   15.62
  -2  -1 -10   82.31   14.74
  -2  -1  -8   10.07   20.11
  -2  -1  -7   19.27    6.65
  -2  -1  -6   81.99    5.53
  -2  -1  -5  367.21   20.34
  -2  -1  -4  987.02   51.47
  -2  -1  -3   46.34   12.41
  -2  -1  -2  239.08   17.03
  -2  -1  -1  240.21   24.74
  -2  -1   0  886.28   10.99
  -2  -1   1  740.52   12.84
  -2  -1   2  971.00   38.09
  -2  -1   3  328.82   15.95
  -2  -1   4  315.01   22.76
  -2  -1   5  240.35    9.81
  -2  -1   6  227.47   45.82
  -2  -1   8  196.58   20.16
  -2  -1  10  117.29   18.71
  -2  -1  11  213.54   28.07
  -2  -1  12   62.83   12.82
  -2  -1  13   45.40   20.70
  -2   1 -12   70.28   18.81
  -2   1 -11   25.88   12.44
  -2   1 -10   94.68   16.32
  -2   1  -8   13.67   10.37
  -2   1  -7   16.35    9.40
  -2   1  -6   88.39    3.88
  -2   1  -5  495.21   12.62
  -2   1  -4  966.73   65.11
  -2   1  -3   24.34    4.20
  -2   1  -2  245.86   16.61
  -2   1  -1  275.56   28.61
  -2   1   0  547.79   14.00
  -2   1   1  533.09   19.90
  -2   1   2  626.89   39.31
  -2   1   3  324.87   20.13
  -2   1   4  315.00   27.00
  -2   1   5  212.54   15.32
  -2   1   6  202.54   20.77
  -2   1   7  222.19   21.42
  -2   1   8  121.95   16.20
  -2   1   9  171.51   23.09
  -2   1  10    6.22   23.38
  -2   1  11  100.30   13.81
  -2   1  12  138.97   30.46
  -2   1  13   33.00   14.54
  -2   2 -12   16.51   17.44
  -2   2 -11   26.97   18.16
  -2   2 -10   74.13   16.13
  -2   2  -9  187.48   21.33
  -2   2  -8   39.34   13.07
  -2   2  -7   20.42   10.80
  -2   2  -6   34.21   14.92
  -2   2  -5  218.35   18.64
  -2   2  -4  356.89   10.33
  -2   2  -3   52.30    5.62
  -2   2  -2   98.90    5.56
  -2   2  -1   44.49    4.44
  -2   2   0   89.49    8.62
  -2   2   1  143.98   10.03
  -2   2   2  236.36    5.27
  -2   2   3  150.00    7.48
  -2   2   4  138.13    3.65
  -2   2   5  224.87   15.27
  -2   2   6  235.94   18.41
  -2   2   7  154.77   21.22
  -2   2   8   67.47   18.72
  -2   2   9   73.56   20.92
  -2   2  10   33.40   22.27
  -2   2  11   59.88   25.32
  -2   2  12  116.66   28.00
  -2   2  13  103.54   28.05
  -2   3 -12   34.69   25.40
  -2   3 -11   81.07   23.26
  -2   3 -10  153.19   23.52
  -2   3  -9  291.31   28.03
  -2   3  -8   22.13   15.83
  -2   3  -7   89.71   17.20
  -2   3  -6   97.58   16.35
  -2   3  -5  380.25   19.75
  -2   3  -4  510.99   17.43
  -2   3  -3  179.59    8.44
  -2   3  -2  231.23    8.83
  -2   3  -1  164.19   11.11
  -2   3   0  179.67   11.14
  -2   3   1  223.38   17.16
  -2   3   2  364.18    9.25
  -2   3   3  311.18   15.28
  -2   3   4  310.29   11.78
  -2   3   5  425.67   21.94
  -2   3   6  366.28   34.70
  -2   3   7  258.39   13.30
  -2   3   8  138.19   15.44
  -2   3   9  119.92   15.10
  -2   3  10   82.79   23.91
  -2   3  11  157.08   18.64
  -2   3  12  130.02   20.10
  -2   3  13   79.96   26.43
  -2   4 -11   54.41   23.95
  -2   4 -10   75.05   22.84
  -2   4  -9  181.10   24.89
  -2   4  -8   16.52   16.63
  -2   4  -7   68.20   16.60
  -2   4  -6   92.59   16.27
  -2   4  -5  290.99   20.37
  -2   4  -4  416.11   20.58
  -2   4  -3  117.87   10.51
  -2   4  -2  167.69   11.67
  -2   4  -1  128.60   23.70
  -2   4   0  165.38   10.92
  -2   4   1  264.27   10.13
  -2   4   2  305.27   26.57
  -2   4   3  233.47    7.88
  -2   4   4  240.00   10.69
  -2   4   5  170.55    9.69
  -2   4   6  139.99   13.62
  -2   4   7  140.98   15.85
  -2   4   8   70.69   14.04
  -2   4   9   98.20   15.50
  -2   4  10   46.45   15.44
  -2   4  11  142.21   19.16
  -2   4  12  115.11   27.36
  -2   5 -11   19.05   24.05
  -2   5 -10   37.73   22.32
  -2   5  -9  113.46   23.19
  -2   5  -8   23.85   18.90
  -2   5  -7   31.12   15.85
  -2   5  -6   15.76   14.24
  -2   5  -5   39.28   10.71
  -2   5  -4   72.27   19.17
  -2   5  -3   51.02   10.92
  -2   5  -2   10.13    9.65
  -2   5  -1   53.13    9.68
  -2   5   0    5.12    9.37
  -2   5   1   46.10    6.27
  -2   5   2   39.72    6.93
  -2   5   3   21.41    9.81
  -2   5   4   16.45   10.85
  -2   5   5  236.13   18.75
  -2   5   6  101.99   14.40
  -2   5   7   79.39   14.06
  -2   5   8   13.94   13.42
  -2   5   9   22.82   14.76
  -2   5  10    8.42   15.70
  -2   5  11   58.45   23.27
  -2   6 -10  100.92   26.27
  -2   6  -4  254.91   25.51
  -2   6  -3  130.47   13.55
  -2   6  -2  109.81   20.33
  -2   6  -1   96.60   12.43
  -2   6   0  104.53   39.61
  -2   6   1  144.09   13.83
  -2   6   2  133.59   27.48
  -2   6   3  132.04   14.01
  -2   6   4  145.81   14.31
  -2   6   5  149.63   17.07
  -2   6   6  115.47   14.33
  -2   6   7   92.62   15.78
  -2   6   8   51.95   15.21
  -2   6   9   64.64   16.62
  -2   6  10   43.08   17.71
  -2   6  11   87.62   29.51
  -2   7  -4   56.89   24.02
  -2   7  -3   56.68   23.86
  -2   7  -2   35.71   22.24
  -2   7  -1   41.15   19.80
  -2   7   0   61.22   12.35
  -2   7   1   72.54   12.23
  -2   7   2   47.91   12.49
  -2   7   3   52.47   13.16
  -2   7   4   49.08   14.24
  -2   7   5   89.08   15.63
  -2   7   6   51.56   14.87
  -2   7   7   39.52   15.53
  -2   7   8   27.62   16.21
  -2   7   9   40.36   17.40
  -2   8  -4   53.30   26.44
  -2   8  -3    6.44   25.04
  -2   8  -2    0.72   24.49
  -2   8  -1   13.86   22.86
  -2   8   0   45.30   24.21
  -2   8   1   19.85   22.45
  -2   8   2   23.42   21.44
  -2   8   3    0.34   23.33
  -2   8   4   26.89   24.95
  -2   8   5   77.78   27.27
  -2   8   6   31.53   26.01
  -1  -9  -4  100.57   30.28
  -1  -9  -3   29.20   23.66
  -1  -9  -2   32.50   22.81
  -1  -9  -1   26.08   22.58
  -1  -9   0   24.87   21.75
  -1  -9   1   21.58   21.44
  -1  -9   2   29.34   23.09
  -1  -9   3   36.17   25.01
  -1  -9   4   53.58   27.20
  -1  -8  -7   10.60   23.86
  -1  -8  -6   21.58   17.40
  -1  -8  -5   21.41   23.12
  -1  -8  -4    9.11   20.84
  -1  -8  -3    8.38   21.08
  -1  -8  -2    1.01   20.99
  -1  -8  -1   10.24   21.22
  -1  -8   0    9.39   21.22
  -1  -8   1   16.74   20.94
  -1  -8   2   12.05   24.37
  -1  -8   3    1.83   14.48
  -1  -8   4    4.54   15.91
  -1  -8   5   19.20   23.38
  -1  -8   6   37.26   23.59
  -1  -8   7    0.82   23.33
  -1  -7  -9   59.68   27.90
  -1  -7  -8    0.82   22.72
  -1  -7  -7   24.96   22.46
  -1  -7  -6   50.83   15.96
  -1  -7  -5   65.04   22.15
  -1  -7  -4   86.92   22.84
  -1  -7  -3   33.59   19.47
  -1  -7  -2   36.23   20.16
  -1  -7  -1   47.50   20.16
  -1  -7   0   64.48   20.56
  -1  -7   1   39.69   14.91
  -1  -7   2   42.50   14.01
  -1  -7   3   21.15   13.33
  -1  -7   4   53.36   18.42
  -1  -7   5   79.07   16.48
  -1  -7   6   81.43   17.24
  -1  -7   7   20.88   16.41
  -1  -7   8   24.87   18.12
  -1  -6 -10   96.32   16.90
  -1  -6  -9  122.34   21.03
  -1  -6  -8    6.55   21.53
  -1  -6  -7   51.77   21.94
  -1  -6  -6  109.88   15.79
  -1  -6  -5  217.95   27.00
  -1  -6  -4  289.65   25.66
  -1  -6  -3   61.06   19.64
  -1  -6  -2   85.14   19.40
  -1  -6  -1   86.62   19.11
  -1  -6   0  106.97   20.01
  -1  -6   1   91.77   25.48
  -1  -6   2   90.24   14.10
  -1  -6   3   89.04   13.96
  -1  -6   4  156.69   18.09
  -1  -6   5  188.11   18.99
  -1  -6   6  141.07   16.90
  -1  -6   7   38.19   20.84
  -1  -6   8   36.01   15.25
  -1  -6   9   44.21   16.66
  -1  -6  10   36.87   22.69
  -1  -5 -11   33.02   20.44
  -1  -5 -10   90.93   14.73
  -1  -5  -9  170.76   20.70
  -1  -5  -8   19.03   20.25
  -1  -5  -7   23.78   18.19
  -1  -5  -6   18.74   17.91
  -1  -5  -5   60.10   18.12
  -1  -5  -4   22.51   16.42
  -1  -5  -3   34.33    9.32
  -1  -5  -2   22.35    6.96
  -1  -5  -1   68.93   15.12
  -1  -5   0  126.84   13.63
  -1  -5   1   70.19   11.53
  -1  -5   2   19.96   10.66
  -1  -5   3    6.78   10.95
  -1  -5   4   17.23    4.34
  -1  -5   5  168.35    9.77
  -1  -5   6  113.65   17.82
  -1  -5   7   53.49   17.23
  -1  -5   8   16.83   13.37
  -1  -5   9   23.45   14.97
  -1  -5  10   11.23   15.94
  -1  -5  11   26.92   16.70
  -1  -4 -12   23.20   32.53
  -1  -4 -11  103.97   20.79
  -1  -4 -10  129.91   19.50
  -1  -4  -9  207.85   19.60
  -1  -4  -8   14.81   16.28
  -1  -4  -7   52.85   20.16
  -1  -4  -6  176.24   21.20
  -1  -4  -5  429.93   27.22
  -1  -4  -4  522.52   24.30
  -1  -4  -3   90.10   10.27
  -1  -4  -2  198.80    8.92
  -1  -4  -1   88.71   16.94
  -1  -4   0  120.66   10.05
  -1  -4   1   88.02   15.30
  -1  -4   2   80.22    8.35
  -1  -4   3  143.74   10.30
  -1  -4   4  266.60    6.12
  -1  -4   5  254.61    9.39
  -1  -4   6  147.91   10.10
  -1  -4   7   82.36   14.41
  -1  -4   8    2.02   10.88
  -1  -4   9   56.92   13.69
  -1  -4  10    9.28   12.54
  -1  -4  11   58.98   16.23
  -1  -4  12   50.09   23.74
  -1  -3 -12   34.28   34.20
  -1  -3 -11  156.70   21.55
  -1  -3 -10  304.33   37.99
  -1  -3  -9  459.75   22.94
  -1  -3  -8   65.62   23.22
  -1  -3  -7  255.20   39.37
  -1  -3  -6  248.71   16.22
  -1  -3  -5  440.03   22.36
  -1  -3  -4  415.51   16.61
  -1  -3  -3  185.32   11.57
  -1  -3  -2  290.53   13.93
  -1  -3  -1  508.81   12.54
  -1  -3   0  682.72   20.94
  -1  -3   1  441.62   13.83
  -1  -3   2  178.13    8.47
  -1  -3   3  131.62    5.82
  -1  -3   4  184.58    8.58
  -1  -3   5  537.43   16.10
  -1  -3   6  332.51   10.83
  -1  -3   7  260.89   21.92
  -1  -3   8   77.23   13.53
  -1  -3   9  147.52   18.41
  -1  -3  10   38.38   19.80
  -1  -3  11  141.67   24.14
  -1  -3  12   93.14   25.56
  -1  -3  13   65.49   27.19
  -1  -2 -12   23.87   18.84
  -1  -2 -11   94.10   19.20
  -1  -2 -10  196.69   18.99
  -1  -2  -9  335.40   14.65
  -1  -2  -8   44.72   14.72
  -1  -2  -7   93.33   13.49
  -1  -2  -6  106.02   12.06
  -1  -2  -5  211.09   15.05
  -1  -2  -4  208.68   15.70
  -1  -2  -3   48.91    5.00
  -1  -2  -2  197.66    6.50
  -1  -2  -1  287.59   12.40
  -1  -2   0  332.65    8.63
  -1  -2   1  178.49    9.15
  -1  -2   2   39.63    3.47
  -1  -2   3   73.85    5.72
  -1  -2   4   50.81    5.72
  -1  -2   5  416.87   24.30
  -1  -2   6  227.91   21.08
  -1  -2   7  164.08   10.25
  -1  -2   8   15.60   14.73
  -1  -2   9   55.15   18.34
  -1  -2  10    4.81   18.08
  -1  -2  11  100.00   23.41
  -1  -2  12   68.22   24.37
  -1  -2  13   40.27   24.56
  -1  -1 -13   24.72   27.08
  -1  -1 -12   47.20   15.62
  -1  -1 -11  286.06   36.16
  -1  -1 -10  152.16   18.72
  -1  -1  -9  243.67   18.54
  -1  -1  -8  190.80   26.32
  -1  -1  -7  103.34   13.91
  -1  -1  -6  330.36   20.73
  -1  -1  -5  834.46   61.96
  -1  -1  -4  894.70  101.41
  -1  -1  -3  362.18   12.30
  -1  -1  -2  688.36   22.15
  -1  -1  -1  356.67    8.87
  -1  -1   0  516.64   36.65
  -1  -1   1  129.36    4.47
  -1  -1   2  174.59    5.59
  -1  -1   3  724.90    9.50
  -1  -1   4  670.45   86.52
  -1  -1   5  722.48   86.12
  -1  -1   6  220.84   28.70
  -1  -1   7  155.53   23.30
  -1  -1   8    9.25    6.97
  -1  -1   9   87.46   18.69
  -1  -1  10   27.32   15.92
  -1  -1  11  144.56   27.10
  -1  -1  12   99.93   24.69
  -1   1 -12   30.84   15.50
  -1   1 -11  340.25   27.54
  -1   1 -10  112.44   45.01
  -1   1  -9  184.50   65.00
  -1   1  -8  324.87   53.84
  -1   1  -7  167.69   42.50
  -1   1  -6  285.38   16.60
  -1   1  -5  627.00   69.28
  -1   1  -4  680.78  153.61
  -1   1  -3  619.43   14.63
  -1   1  -2  693.74   43.37
  -1   1  -1  573.72    5.15
  -1   1   0 1153.62   13.40
  -1   1   1   77.22    8.96
  -1   1   2  249.41    6.93
  -1   1   3  773.06   11.74
  -1   1   4  484.83   24.01
  -1   1   5  766.77   27.34
  -1   1   6  242.43   19.36
  -1   1   8    6.66    9.12
  -1   1   9   95.68   20.58
  -1   1  10   13.79   13.97
  -1   1  11   30.72   10.82
  -1   1  12   25.42    9.10
  -1   1  13   73.52   28.00
  -1   2 -12   20.63   16.67
  -1   2 -11  105.54   18.96
  -1   2 -10  182.76   16.46
  -1   2  -9  191.54   18.80
  -1   2  -8   78.25   16.25
  -1   2  -7   82.23   13.13
  -1   2  -6  126.44   11.61
  -1   2  -5  162.71   11.77
  -1   2  -4  237.76   16.80
  -1   2  -3  174.37    9.40
  -1   2  -2  254.49    8.21
  -1   2  -1  415.78   32.44
  -1   2   0 1628.72   23.41
  -1   2   1  311.08    6.76
  -1   2   2  150.38    5.56
  -1   2   3  222.70    8.94
  -1   2   4   39.42    5.85
  -1   2   5  591.82   77.72
  -1   2   6  163.43   19.59
  -1   2   7   92.39   18.15
  -1   2   8   18.12   17.08
  -1   2   9   51.59   20.13
  -1   2  10   11.56   19.81
  -1   2  11   27.49   22.05
  -1   2  12   21.66   20.68
  -1   3 -12   30.89   18.48
  -1   3 -11  153.88   18.79
  -1   3 -10  279.16   38.72
  -1   3  -9  325.00   36.42
  -1   3  -8  193.14   16.74
  -1   3  -7  234.30   20.21
  -1   3  -6  270.26   20.89
  -1   3  -5  364.94   21.06
  -1   3  -4  429.08   11.64
  -1   3  -3  397.33   19.34
  -1   3  -2  324.41    9.16
  -1   3  -1  590.20    9.72
  -1   3   0 2427.54  102.09
  -1   3   1  853.46   11.86
  -1   3   2  341.25    7.67
  -1   3   3   55.48    5.79
  -1   3   4  120.83    7.48
  -1   3   5  860.14   21.77
  -1   3   6  326.20   14.70
  -1   3   7  218.87   15.06
  -1   3   8  108.88   13.10
  -1   3   9  164.20   16.16
  -1   3  10   76.18   14.62
  -1   3  11  104.03   27.41
  -1   3  12   43.12   24.87
  -1   4 -12   60.28   26.03
  -1   4 -11  110.45   25.94
  -1   4 -10  100.62   24.37
  -1   4  -9   70.51   22.84
  -1   4  -8   48.86   20.66
  -1   4  -7   63.95   19.36
  -1   4  -6  157.73   18.85
  -1   4  -5  323.91   13.01
  -1   4  -4  447.68   23.23
  -1   4  -3  359.22   14.32
  -1   4  -2  164.07    7.80
  -1   4  -1  142.99   10.12
  -1   4   0  746.16   39.55
  -1   4   1   58.54    6.37
  -1   4   2   63.60    6.66
  -1   4   3  133.69   10.84
  -1   4   4  186.67   12.23
  -1   4   5  547.21   54.47
  -1   4   6  135.59   13.44
  -1   4   7   51.56   11.91
  -1   4   8   26.02   13.47
  -1   4   9   18.69   13.05
  -1   4  10   17.30   14.86
  -1   4  11   41.84   15.17
  -1   4  12   21.56   26.53
  -1   5 -11   43.43   23.97
  -1   5 -10  113.05   26.77
  -1   5  -9  147.71   24.40
  -1   5  -8  113.28   22.27
  -1   5  -7   47.97   17.70
  -1   5  -6   14.27   10.12
  -1   5  -5   68.55   13.52
  -1   5  -4   60.63   10.64
  -1   5  -3   42.12   10.57
  -1   5  -2   45.50    7.63
  -1   5  -1  149.58   10.88
  -1   5   0  841.75   15.60
  -1   5   1  165.87   10.46
  -1   5   2   56.10    8.06
  -1   5   3    0.44    8.40
  -1   5   4    9.56    9.18
  -1   5   5  194.94   14.44
  -1   5   6   69.57   11.87
  -1   5   7   71.25   18.67
  -1   5   8   68.15   14.54
  -1   5   9   44.18   14.56
  -1   5  10   12.13   14.42
  -1   5  11   13.52   23.19
  -1   6  -6  130.57   16.37
  -1   6  -5  220.66   20.39
  -1   6  -4  212.44   20.96
  -1   6  -3  138.31   14.34
  -1   6  -2   73.41    8.61
  -1   6  -1   91.85    9.11
  -1   6   0  435.75   19.60
  -1   6   1   70.40    8.45
  -1   6   2   75.72    9.74
  -1   6   3   51.53   10.52
  -1   6   4  131.19   13.27
  -1   6   5  306.95   16.92
  -1   6   6  106.65   14.94
  -1   6   7   33.60   13.46
  -1   6   8   58.70   14.93
  -1   6   9   15.72   14.82
  -1   6  10   20.91   24.00
  -1   7  -5  104.22   19.35
  -1   7  -4   84.51   19.94
  -1   7  -3   48.06   14.44
  -1   7  -2   43.23   14.18
  -1   7  -1   65.49   14.62
  -1   7   0  304.00   34.76
  -1   7   1   49.04   16.07
  -1   7   2   23.85   18.40
  -1   7   3   18.95   11.35
  -1   7   4   56.71   12.13
  -1   7   5  116.91   15.38
  -1   7   6   53.37   13.81
  -1   7   7   23.54   13.74
  -1   7   8   74.09   16.58
  -1   7   9   17.14   22.58
  -1   8  -4   22.23   20.66
  -1   8  -3   18.30   17.73
  -1   8  -2   14.03   14.68
  -1   8  -1   34.11   15.34
  -1   8   0  225.19   21.67
  -1   8   1   30.97   22.24
  -1   8   2   24.49   23.02
  -1   8   3    3.43   21.63
  -1   8   4    6.85   21.93
  -1   8   5   34.28   24.37
  -1   8   6   24.67   23.03
  -1   8   7    3.72   24.66
   0  -9   2    2.81   19.42
   0  -8  -5   26.37   21.63
   0  -8  -4    8.16   19.85
   0  -8  -3   18.21   19.11
   0  -8  -2   26.50   19.83
   0  -8  -1   71.87   21.67
   0  -8   0  148.56   24.63
   0  -8   1   49.91   15.46
   0  -8   2    7.69   14.48
   0  -8   3    1.99   15.15
   0  -8   4    1.31   15.20
   0  -8   5   38.40   15.86
   0  -8   6    8.02   19.94
   0  -8   7    4.96   22.62
   0  -8   8   17.38   23.78
   0  -7  -9   60.47   18.64
   0  -7  -8   67.22   18.24
   0  -7  -7   44.85   20.89
   0  -7  -6   94.48   21.74
   0  -7  -5   94.38   22.36
   0  -7  -4   80.20   19.52
   0  -7  -3   79.96   19.57
   0  -7  -2   48.04   17.93
   0  -7  -1  102.11   19.76
   0  -7   0  226.56   16.61
   0  -7   1   83.44   14.82
   0  -7   2   29.37   12.24
   0  -7   3   27.95   12.41
   0  -7   4   41.95   14.50
   0  -7   5  160.18   28.14
   0  -7   6   64.12   15.44
   0  -7   7   35.79   15.98
   0  -7   8   36.58   15.28
   0  -7   9   39.22   22.72
   0  -6 -11   87.62   29.21
   0  -6 -10   52.49   17.10
   0  -6  -9   51.28   16.48
   0  -6  -8   99.73   16.64
   0  -6  -7   72.74   20.26
   0  -6  -6  131.08   21.63
   0  -6  -5  221.69   15.67
   0  -6  -4  166.99   21.34
   0  -6  -3  133.51   18.91
   0  -6  -2   91.22   17.05
   0  -6  -1  140.67   18.98
   0  -6   0  371.29   29.17
   0  -6   1  121.48   12.74
   0  -6   2   49.69   12.77
   0  -6   3   45.64   14.34
   0  -6   4   79.18   12.86
   0  -6   5  338.69   18.89
   0  -6   6   98.35   14.95
   0  -6   7   45.53   14.01
   0  -6   8   18.34   14.96
   0  -6   9   31.57   15.41
   0  -6  10   24.54   22.81
   0  -5 -11   75.06   67.00
   0  -5 -10  101.57   16.97
   0  -5  -9  159.03   17.37
   0  -5  -8  223.91   18.34
   0  -5  -7   83.04   19.54
   0  -5  -6   69.46   17.91
   0  -5  -5   75.86   12.37
   0  -5  -4   32.97   14.35
   0  -5  -3   78.77   15.90
   0  -5  -2  119.86    9.73
   0  -5  -1  334.37   10.62
   0  -5   0 1070.13   31.16
   0  -5   1  248.54   27.80
   0  -5   2   64.51    4.72
   0  -5   3    3.60    3.90
   0  -5   4    4.59    6.28
   0  -5   5  172.73   15.06
   0  -5   6   41.76    8.72
   0  -5   7   79.22   10.85
   0  -5   8   70.22   12.78
   0  -5   9  113.94   16.24
   0  -5  10   27.67   24.24
   0  -5  11    2.85   24.87
   0  -4 -12   62.23   32.56
   0  -4 -11   82.25   19.18
   0  -4 -10   50.24   12.60
   0  -4  -9   24.51   12.89
   0  -4  -8  125.40   15.60
   0  -4  -7   83.22   18.12
   0  -4  -6  213.80   21.08
   0  -4  -5  404.83   22.32
   0  -4  -4  307.58   21.82
   0  -4  -3  188.10   11.22
   0  -4  -2   92.30    8.16
   0  -4  -1   82.18   11.52
   0  -4   0  829.65   30.08
   0  -4   1   35.15    8.28
   0  -4   2   34.59    4.39
   0  -4   3   42.82    4.70
   0  -4   4  157.66    9.25
   0  -4   5  730.36   12.20
   0  -4   6  133.27   20.61
   0  -4   7   52.64   11.64
   0  -4   8   17.81   16.72
   0  -4   9   29.87   17.29
   0  -4  10   49.84   20.06
   0  -4  11   73.72   22.50
   0  -4  12   49.65   23.95
   0  -4  13   73.30   26.75
   0  -3 -12   56.24   24.48
   0  -3 -11  155.07   20.01
   0  -3 -10  194.65   13.77
   0  -3  -9  234.73   38.51
   0  -3  -8  488.39   17.93
   0  -3  -7  274.03   22.24
   0  -3  -6  372.49   22.88
   0  -3  -5  616.73   27.50
   0  -3  -4  439.43   19.94
   0  -3  -3  320.51   12.88
   0  -3  -2  561.97   28.90
   0  -3  -1 1051.41   28.84
   0  -3   0 6063.30   25.48
   0  -3   1 1288.59   73.77
   0  -3   2  484.32    6.14
   0  -3   3   80.09    5.72
   0  -3   4  197.72    6.59
   0  -3   5  989.13   28.36
   0  -3   6  271.79    9.90
   0  -3   7  237.98   21.98
   0  -3   8  212.41   18.97
   0  -3   9  287.24   28.28
   0  -3  10  172.10   22.51
   0  -3  11   77.33   23.95
   0  -3  12   31.54   24.52
   0  -3  13   61.37   26.25
   0  -2 -13   21.93   22.38
   0  -2 -12   16.93   17.93
   0  -2 -11   65.93   17.40
   0  -2 -10  117.13   23.47
   0  -2  -9  105.42   10.06
   0  -2  -8  413.92   54.25
   0  -2  -7  111.82   10.24
   0  -2  -6  172.53   11.74
   0  -2  -5  435.95   22.76
   0  -2  -4  192.68   23.75
   0  -2  -3   82.60    6.01
   0  -2  -2  214.03    8.31
   0  -2  -1  197.96    7.09
   0  -2   0 5714.28  169.44
   0  -2   1  271.35    3.35
   0  -2   2  138.33    5.10
   0  -2   3    0.46    5.89
   0  -2   4  101.10    6.60
   0  -2   5  863.75   14.24
   0  -2   6  128.85   16.76
   0  -2   7   98.81   15.21
   0  -2   8  131.50   21.77
   0  -2   9  114.05   19.30
   0  -2  10   71.31   21.49
   0  -2  11   35.55   22.15
   0  -2  12   14.59   19.87
   0  -2  13   48.89   26.20
   0  -1 -13  174.80   62.88
   0  -1 -12   43.16   16.76
   0  -1 -11   45.98   15.41
   0  -1 -10   36.08   13.50
   0  -1  -9  129.91   14.22
   0  -1  -8  113.30    6.18
   0  -1  -7   61.76    9.45
   0  -1  -6  193.90   11.09
   0  -1  -5 1284.94   64.20
   0  -1  -4  612.20   11.91
   0  -1  -3  224.87    7.44
   0  -1  -2  119.57    5.83
   0  -1  -1  228.61    5.48
   0  -1   0 4459.69   16.18
   0  -1   1   68.01    3.44
   0  -1   2    9.69    3.49
   0  -1   3   29.49    3.46
   0  -1   4  410.25   13.30
   0  -1   5 1337.71   33.42
   0  -1   6  202.83   17.12
   0  -1   7   47.09   15.94
   0  -1   8    8.78   16.22
   0  -1   9   55.90   19.14
   0  -1  10   80.45   20.94
   0  -1  11   39.24   14.99
   0  -1  12   32.84   20.30
   0   1 -13   72.22   15.83
   0   1 -12   25.00   14.50
   0   1 -11   34.74   11.16
   0   1 -10   53.82   13.04
   0   1  -9   48.98   12.35
   0   1  -8   51.32    7.66
   0   1  -7   42.59    8.90
   0   1  -6  155.41   14.45
   0   1  -5 1343.94   49.51
   0   1  -4  414.69   25.68
   0   1  -3   30.69    4.25
   0   1  -2    9.42    4.00
   0   1  -1   70.02   10.90
   0   1   0 4433.84   16.87
   0   1   1  225.83    4.70
   0   1   2  161.26    5.29
   0   1   3  241.97    8.89
   0   1   4  657.81   16.62
   0   1   5  846.62   27.22
   0   1   7   40.65   13.65
   0   1   8   72.62   18.59
   0   1   9    8.19    4.21
   0   1  10   62.82   19.94
   0   1  11   43.83   24.18
   0   1  12   44.42   22.08
   0   1  13   71.86   19.94
   0   2 -13   64.98   29.26
   0   2 -12   22.71   16.62
   0   2 -11   45.96   18.39
   0   2 -10   81.93   22.72
   0   2  -9  141.37   13.93
   0   2  -8  111.15    6.21
   0   2  -7  103.55    5.13
   0   2  -6  141.31    7.28
   0   2  -5  791.13   55.85
   0   2  -4  101.06    5.76
   0   2  -3    4.95    4.77
   0   2  -2  119.88   20.31
   0   2  -1  269.56    4.25
   0   2   0 5668.15   30.12
   0   2   1  229.78    6.11
   0   2   2  212.91   13.33
   0   2   3   94.87    8.88
   0   2   4  211.88   15.03
   0   2   5  368.27   13.55
   0   2   6  140.09   14.60
   0   2   7  127.09   10.57
   0   2   8  321.77   16.75
   0   2   9  121.66   13.04
   0   2  10  111.63   13.84
   0   2  11   84.12   24.85
   0   2  12   27.22   24.14
   0   3 -12   35.15   17.84
   0   3 -11   93.62   18.10
   0   3 -10  132.07   19.02
   0   3  -9  256.30   29.30
   0   3  -8  205.53   14.87
   0   3  -7  234.26   10.53
   0   3  -6  272.63    9.65
   0   3  -5 1048.70   49.38
   0   3  -4  193.20   10.31
   0   3  -3   65.54   11.46
   0   3  -2  470.12   12.61
   0   3  -1 1226.36   41.17
   0   3   0 6041.66   93.56
   0   3   1 1005.99   68.10
   0   3   2  571.18   20.30
   0   3   3  311.48   18.47
   0   3   4  428.92   12.02
   0   3   5  597.46   58.91
   0   3   6  368.63   23.52
   0   3   7  252.86   15.04
   0   3   8  471.75   17.13
   0   3   9  216.00   24.66
   0   3  10  215.97   18.42
   0   3  11  149.00   27.17
   0   3  12   99.52   29.83
   0   4 -12   21.65   25.89
   0   4 -11    2.03   21.93
   0   4 -10   50.94   22.20
   0   4  -9   29.79   19.78
   0   4  -8    3.14   17.36
   0   4  -7   59.34    9.38
   0   4  -6  140.63   11.42
   0   4  -5  709.89   22.91
   0   4  -4  140.57   14.80
   0   4  -3   61.04   13.41
   0   4  -2   44.58   10.33
   0   4  -1   43.49    4.74
   0   4   0  747.47   20.01
   0   4   1   89.79    8.09
   0   4   2   96.68    7.51
   0   4   3  164.84    8.53
   0   4   4  280.10   13.65
   0   4   5  385.82   14.36
   0   4   6  217.18   13.66
   0   4   7   92.10   12.69
   0   4   8   88.73   13.81
   0   4   9   45.93   12.70
   0   4  10   26.67   21.74
   0   4  11   85.50   25.87
   0   4  12   49.04   26.27
   0   5 -11   53.37   25.40
   0   5 -10   63.13   23.62
   0   5  -9  150.43   27.64
   0   5  -7   70.51   13.64
   0   5  -6   37.78   12.25
   0   5  -5  200.11   19.11
   0   5  -4   28.68   13.05
   0   5  -3   13.14   13.81
   0   5  -2   65.73   10.59
   0   5  -1  305.63   11.57
   0   5   0 1094.43   26.89
   0   5   1  337.67   13.09
   0   5   2  128.60    8.80
   0   5   3   57.73    8.02
   0   5   4   30.26    9.73
   0   5   5   69.06    9.30
   0   5   6   81.12    9.94
   0   5   7  102.82   12.56
   0   5   8  186.39   16.67
   0   5   9  110.02   23.62
   0   5  10   78.71   24.47
   0   5  11   66.46   27.58
   0   6  -6   79.67   16.58
   0   6  -5  303.42   22.96
   0   6  -4  108.90   18.52
   0   6  -3   68.67   17.67
   0   6  -2   37.12   12.83
   0   6  -1  118.82   12.97
   0   6   0  392.59   12.54
   0   6   1  177.73    9.71
   0   6   2  104.33    9.12
   0   6   3  135.67    9.82
   0   6   4  170.12   14.75
   0   6   5  259.83   17.24
   0   6   6  180.51   13.16
   0   6   7   88.05   13.91
   0   6   8   86.26   14.33
   0   6   9   76.30   22.65
   0   6  10   46.83   23.52
   0   6  11   80.02   26.81
   0   7  -6   43.41   17.50
   0   7  -5  155.69   22.88
   0   7  -4   64.76   19.52
   0   7  -3   39.88   19.45
   0   7  -2   20.13   13.60
   0   7  -1   50.35   21.40
   0   7   0  204.94   17.68
   0   7   1  117.35   15.97
   0   7   2   65.38   15.04
   0   7   3   69.62   14.98
   0   7   4   59.47   14.36
   0   7   5   90.83   17.09
   0   7   6   76.80   20.96
   0   7   7   58.54   14.95
   0   7   8   63.23   21.46
   0   7   9   71.17   24.26
   0   7  10   41.21   24.92
   0   8  -5   26.69   21.67
   0   8  -4    7.87   19.52
   0   8  -3    1.99   20.70
   0   8  -2    4.76   20.80
   0   8  -1   60.79   16.54
   0   8   0  167.58   19.14
   0   8   1   78.30   17.03
   0   8   2   26.90   16.28
   0   8   3    9.71   15.53
   0   8   4    7.33   17.35
   0   8   5   25.87   22.72
   0   8   6   40.45   23.17
   0   9  -4   28.53   23.73
   0   9  -3    9.86   23.81
   0   9  -2    1.37   22.84
   0   9  -1    9.05   26.04
   0   9   0   33.22   18.25
   0   9   1   25.64   26.39
   0   9   2   29.87   25.30
   0   9   3   45.21   26.94
   0   9   4   65.82   27.79
   0   9   5   74.05   28.12
   1  -9   0   86.00   26.58
   1  -9   1   40.21   22.45
   1  -9   2   27.72   15.84
   1  -9   3   47.55   26.39
   1  -8  -6   11.00   27.58
   1  -8  -5   11.45   27.46
   1  -8  -4    0.99   23.60
   1  -8  -3   11.45   23.59
   1  -8   0  178.03   25.49
   1  -8   1   74.15   21.51
   1  -8   2    8.95   19.04
   1  -8   3    2.29   19.68
   1  -8   4   16.18   14.97
   1  -8   5   26.88   21.53
   1  -7  -9   13.39   25.82
   1  -7  -8   34.33   25.58
   1  -7  -7   24.52   24.19
   1  -7  -6   57.90   25.35
   1  -7  -5  117.25   27.98
   1  -7  -4   52.80   14.14
   1  -7  -3   39.14   16.49
   1  -7  -2   72.42   15.59
   1  -7  -1   47.12   11.86
   1  -7   0  328.21   15.95
   1  -7   1   62.18   12.83
   1  -7   2   43.08   11.86
   1  -7   3   70.13   13.99
   1  -7   4  112.35   16.66
   1  -7   5  104.99   12.03
   1  -7   6   57.14   15.19
   1  -7   7   19.42   14.36
   1  -7   8   30.36   18.90
   1  -7   9   43.69   21.61
   1  -6 -11   47.03   25.47
   1  -6 -10   26.08   16.04
   1  -6  -9   25.42   15.51
   1  -6  -8   65.07   15.70
   1  -6  -7   62.31   14.09
   1  -6  -6  118.86   15.76
   1  -6  -5  327.51   28.92
   1  -6  -4  164.34   12.82
   1  -6  -3   51.92   13.81
   1  -6  -2   71.02   15.21
   1  -6  -1   82.33   15.32
   1  -6   0  441.20   19.01
   1  -6   1   98.16   15.10
   1  -6   2   88.78   11.31
   1  -6   3  147.29    9.45
   1  -6   4  245.12   11.59
   1  -6   5  216.31   16.70
   1  -6   6  107.00   14.21
   1  -6   7   36.97   15.97
   1  -6   8   35.96   15.48
   1  -6   9   62.46   15.89
   1  -6  10   74.78   22.03
   1  -5 -12    3.42   23.66
   1  -5 -11   11.94   22.81
   1  -5 -10   13.30   14.17
   1  -5  -9   65.22   15.66
   1  -5  -8   76.89   14.45
   1  -5  -7   42.02   13.13
   1  -5  -6   42.36   11.68
   1  -5  -5  167.29   13.69
   1  -5  -4    8.49   11.89
   1  -5  -3    0.70   11.61
   1  -5  -2   65.58   12.06
   1  -5  -1  186.56    9.50
   1  -5   0  816.84   37.21
   1  -5   1  149.32    7.93
   1  -5   2   60.94    9.35
   1  -5   3   49.35    7.09
   1  -5   4   48.52    7.13
   1  -5   5   60.63    7.42
   1  -5   6   41.87    7.14
   1  -5   7   39.50   12.29
   1  -5   8   94.08   14.28
   1  -5   9  152.54   21.65
   1  -5  10  104.49   25.34
   1  -4 -12   27.26   36.91
   1  -4 -11   12.68   21.94
   1  -4 -10    7.82   13.61
   1  -4  -9   13.20   12.47
   1  -4  -8   12.87   11.94
   1  -4  -7   60.97   12.21
   1  -4  -6  175.10   14.15
   1  -4  -5  537.60   33.59
   1  -4  -4  236.56   12.69
   1  -4  -3  157.59   14.12
   1  -4  -2   68.19   11.34
   1  -4  -1   83.53    7.07
   1  -4   0  689.17   13.80
   1  -4   1  166.36    7.65
   1  -4   2  184.03    5.78
   1  -4   3  420.61   13.01
   1  -4   4  494.67   21.11
   1  -4   5  319.61   12.68
   1  -4   6  177.98   10.66
   1  -4   7   44.58   17.12
   1  -4   8   48.36   20.01
   1  -4   9   47.80   21.53
   1  -4  10   81.60   22.29
   1  -4  11  111.99   26.36
   1  -4  12   59.84   25.87
   1  -3 -13   92.50   29.09
   1  -3 -12   59.39   23.84
   1  -3 -11  108.79   28.34
   1  -3 -10   77.38   13.75
   1  -3  -9  163.73   14.81
   1  -3  -8  127.11   13.39
   1  -3  -7  254.00   15.35
   1  -3  -6  332.99   14.52
   1  -3  -5  847.47   33.69
   1  -3  -4  124.79    9.65
   1  -3  -3   65.64    8.93
   1  -3  -2  362.16   10.74
   1  -3  -1  847.58   11.97
   1  -3   0 2491.51   58.88
   1  -3   1  613.35    6.98
   1  -3   2  354.87   15.13
   1  -3   3  380.99   11.29
   1  -3   4  470.39   20.63
   1  -3   5  336.37   10.30
   1  -3   6  276.59    6.90
   1  -3   7  220.71   20.16
   1  -3   8  216.16   23.74
   1  -3   9  342.82   26.94
   1  -3  10  264.11   29.61
   1  -3  11  209.80   29.14
   1  -3  12   63.92   26.89
   1  -2 -13   42.79   21.06
   1  -2 -12   26.88   17.16
   1  -2 -11   55.20   16.67
   1  -2 -10   15.49    9.79
   1  -2  -9   72.49   11.34
   1  -2  -8   23.90    9.13
   1  -2  -7  129.06   11.55
   1  -2  -6  147.25   11.66
   1  -2  -5  545.60   15.06
   1  -2  -4   56.06    8.83
   1  -2  -3  265.85    8.98
   1  -2  -2  161.92    6.49
   1  -2  -1  357.69    6.56
   1  -2   0 1613.51   42.63
   1  -2   1  490.26   19.61
   1  -2   2  296.51    5.17
   1  -2   3  224.96    5.13
   1  -2   4  240.46    9.14
   1  -2   5  162.29    9.67
   1  -2   6  142.61   16.99
   1  -2   7   95.86   18.88
   1  -2   8   62.71   21.35
   1  -2   9  211.65   27.03
   1  -2  10  130.64   21.89
   1  -2  11  112.31   27.03
   1  -2  12   36.67   23.88
   1  -2  13    7.93   25.91
   1  -1 -13   46.01   68.30
   1  -1 -12   99.20   17.64
   1  -1 -11  103.11   16.19
   1  -1 -10   23.08   16.75
   1  -1  -9   53.58    7.77
   1  -1  -8   19.25    6.74
   1  -1  -6  266.81   12.11
   1  -1  -5  920.99   17.81
   1  -1  -4  534.40   14.94
   1  -1  -3  847.80   36.43
   1  -1  -2  281.47    7.15
   1  -1  -1   55.55   10.20
   1  -1   0 1034.76   48.02
   1  -1   1  660.58    6.23
   1  -1   2  763.90    8.50
   1  -1   3  655.15   14.91
   1  -1   4  854.06   16.43
   1  -1   5  654.29   80.09
   1  -1   6  286.93   18.55
   1  -1   7  105.48   10.83
   1  -1   8   35.94   18.79
   1  -1  11   40.29    5.92
   1  -1  12    5.13    9.69
   1  -1  13    6.72   25.18
   1   1 -13   70.41   17.23
   1   1 -12   60.76   15.91
   1   1 -11   98.89   16.72
   1   1 -10    0.90   19.43
   1   1  -9   32.77    6.70
   1   1  -8    0.15    6.24
   1   1  -6  291.88   12.91
   1   1  -5  669.00   59.78
   1   1  -4  685.87   34.44
   1   1  -3  803.07   21.26
   1   1  -2  212.28    6.54
   1   1  -1   99.83    4.17
   1   1   0  439.35   12.89
   1   1   1  421.06   11.84
   1   1   2  685.49   44.06
   1   1   3  373.65    8.99
   1   1   4  878.64   41.08
   1   1   5  756.99   18.13
   1   1   6  246.46   20.70
   1   1   7  180.40   18.15
   1   1   8   52.08   10.18
   1   1   9  214.30   25.02
   1   1  11   99.46   12.70
   1   1  12   67.22   26.55
   1   2 -13   36.56   25.23
   1   2 -12   40.49   16.62
   1   2 -11  103.43   17.34
   1   2 -10   13.30   14.20
   1   2  -9   60.04    8.78
   1   2  -8   10.58    6.89
   1   2  -7  145.77    9.16
   1   2  -6  177.41   11.25
   1   2  -5  395.20   11.64
   1   2  -4   80.10    5.97
   1   2  -3   99.85    6.56
   1   2  -2   45.93    5.45
   1   2  -1  176.28   20.77
   1   2   0  274.50    8.97
   1   2   1  342.49   10.49
   1   2   2  236.61    9.00
   1   2   3   59.65    5.56
   1   2   4  209.05    6.40
   1   2   5  247.07    9.44
   1   2   6  108.58    6.80
   1   2   7  102.97    9.93
   1   2   8   16.00   13.47
   1   2   9  351.69   21.28
   1   2  10  223.29   26.17
   1   2  11  131.90   28.00
   1   2  12   14.78   26.17
   1   3 -13   69.27   26.84
   1   3 -12   80.63   18.47
   1   3 -11  141.09   18.96
   1   3 -10   52.50   15.65
   1   3  -9  136.51   14.76
   1   3  -8   74.99    9.41
   1   3  -7  249.56   10.99
   1   3  -6  328.86   18.49
   1   3  -5  528.60   11.34
   1   3  -4  202.29   12.59
   1   3  -3  148.56    7.81
   1   3  -2  169.18   16.47
   1   3  -1  424.11   18.95
   1   3   0  666.20   25.04
   1   3   1  574.04   13.60
   1   3   2  296.78    9.57
   1   3   3  166.82   10.54
   1   3   4  414.71   12.03
   1   3   5  457.44   11.39
   1   3   6  289.41   11.05
   1   3   7  202.22    9.48
   1   3   8   33.12    9.57
   1   3   9  498.01   32.36
   1   3  10  257.67   30.01
   1   3  11  137.57   28.50
   1   3  12   55.88   27.55
   1   4 -12   61.27   24.95
   1   4 -11   76.26   18.05
   1   4 -10   10.00   15.05
   1   4  -9   30.45   14.57
   1   4  -8   13.17    7.90
   1   4  -7   74.83   12.72
   1   4  -6  156.83   15.11
   1   4  -5  275.15   35.12
   1   4  -4  353.50   19.73
   1   4  -3  189.53   17.53
   1   4  -2  102.47   14.48
   1   4  -1   73.34   14.74
   1   4   0   94.49    6.75
   1   4   1  113.31   11.78
   1   4   2  234.20   12.43
   1   4   3  112.64    8.70
   1   4   4  597.62   18.03
   1   4   5  466.87   13.95
   1   4   6  187.56   11.02
   1   4   7   64.89    8.77
   1   4   8    5.03   16.68
   1   4   9  191.01   24.97
   1   4  10  130.20   26.46
   1   4  11  113.38   27.88
   1   4  12   95.37   29.26
   1   5  -7   39.57   14.36
   1   5  -6  128.29   16.63
   1   5  -5  103.05   17.76
   1   5  -4   31.83   14.45
   1   5  -3    7.14   14.36
   1   5  -2   23.84   15.09
   1   5  -1   62.12   16.75
   1   5   0  118.22   13.64
   1   5   1   70.56    6.06
   1   5   2   38.74   11.48
   1   5   3   24.08    8.96
   1   5   4   51.43    8.66
   1   5   5   44.75    8.06
   1   5   6   25.57    8.62
   1   5   7   20.17    8.86
   1   5   8    1.24   12.50
   1   5   9  160.76   27.13
   1   5  10  112.10   24.92
   1   5  11   46.24   25.56
   1   6  -7   50.12   17.81
   1   6  -6  141.98   20.42
   1   6  -5  154.87   22.25
   1   6  -4  144.00   19.52
   1   6  -3   83.30   19.69
   1   6  -2  100.69   20.32
   1   6  -1   96.65   19.28
   1   6   0  106.73   14.22
   1   6   1   94.12   13.92
   1   6   2   87.74    8.23
   1   6   3   62.73    9.07
   1   6   4  290.14   17.13
   1   6   5  235.92   18.53
   1   6   6  132.94   11.11
   1   6   7   58.05   13.43
   1   6   8    1.04   13.30
   1   6   9  100.51   25.14
   1   6  10   81.92   24.85
   1   7  -6   92.77   20.66
   1   7  -5   82.75   21.27
   1   7  -4   41.92   20.87
   1   7  -3   30.87   18.85
   1   7  -2   37.03   20.56
   1   7  -1   31.49   21.49
   1   7   0   43.84   19.97
   1   7   1   51.17   14.25
   1   7   2   37.78   14.33
   1   7   3   25.90   13.83
   1   7   4   94.26   22.71
   1   7   5   63.84   15.11
   1   7   6   43.83   23.59
   1   7   7   31.58   23.57
   1   8  -6   25.71   21.35
   1   8  -5   34.27   21.74
   1   8  -4   10.72   19.73
   1   8  -3    0.81   21.08
   1   8  -2    3.02   22.34
   1   8  -1   10.94   21.41
   1   8   0   20.49   23.62
   1   8   1    5.38   15.14
   1   8   2    9.51   15.71
   1   8   3    8.38   15.63
   1   8   4   15.79   15.99
   1   8   5    7.80   23.21
   1   9   3   37.54   25.80
   2  -9   0   19.58   24.45
   2  -9   1   20.76   18.18
   2  -9   2   28.98   44.70
   2  -9   3   51.32   18.52
   2  -8  -5   45.47   27.81
   2  -8  -4    1.53   23.69
   2  -8  -3    4.01   22.69
   2  -8  -2    2.01   22.74
   2  -8  -1    3.23   31.78
   2  -8   0    0.39   13.85
   2  -8   1   12.23   17.01
   2  -8   2    0.72   13.30
   2  -8   3    8.87   12.73
   2  -8   4    8.08   19.76
   2  -8   5    5.39   17.86
   2  -7  -8   21.77   27.26
   2  -7  -7   44.90   26.65
   2  -7  -6   19.69   24.49
   2  -7  -5   40.01   23.03
   2  -7  -4   54.94   25.68
   2  -7  -3   61.55   23.48
   2  -7  -2   60.52   23.64
   2  -7  -1   76.23   14.11
   2  -7   0   44.73   17.00
   2  -7   1   51.94   12.59
   2  -7   2   29.97   13.58
   2  -7   3   32.50   12.85
   2  -7   4   66.38   14.09
   2  -7   5   51.42   20.87
   2  -7   6   43.47   23.26
   2  -7   7   31.42   26.48
   2  -6 -11   88.60   27.57
   2  -6 -10   23.59   25.32
   2  -6  -9   84.99   24.47
   2  -6  -8   18.61   23.03
   2  -6  -7  102.88   25.11
   2  -6  -6  140.58   24.19
   2  -6  -5  183.47   28.12
   2  -6  -4  153.27   23.62
   2  -6  -3  127.04   23.36
   2  -6  -2  121.64    9.48
   2  -6  -1  129.95    9.86
   2  -6   0   75.80    8.54
   2  -6   1   99.75    9.56
   2  -6   2  112.60    8.42
   2  -6   3  109.12   10.00
   2  -6   4  238.02    9.54
   2  -6   5  179.19    9.84
   2  -6   6   83.45   10.04
   2  -6   7   49.04   11.29
   2  -6   8    1.25   20.83
   2  -6   9  129.47   24.61
   2  -5 -11   21.09   21.29
   2  -5 -10   21.14   22.13
   2  -5  -9   18.85   13.35
   2  -5  -8   15.13   12.65
   2  -5  -7   66.67   12.24
   2  -5  -6   90.70   12.64
   2  -5  -5  225.42   13.46
   2  -5  -4   10.52    8.27
   2  -5  -3   12.31    7.31
   2  -5  -2   42.52    5.14
   2  -5  -1   55.28    4.99
   2  -5   0    4.56    7.33
   2  -5   1   44.12    5.19
   2  -5   2    8.77    6.29
   2  -5   3   46.38    6.99
   2  -5   4   56.17    6.71
   2  -5   5   32.02    6.71
   2  -5   6   12.58   15.47
   2  -5   7   30.59   17.51
   2  -5   8   16.36   18.69
   2  -5   9  116.00   23.92
   2  -5  10   91.93   25.18
   2  -5  11    8.63   24.54
   2  -4 -13   49.25   26.32
   2  -4 -12   83.59   24.87
   2  -4 -11  132.86   16.47
   2  -4 -10   60.72   13.84
   2  -4  -9  114.04   16.85
   2  -4  -8   68.96   12.63
   2  -4  -7  139.18   13.99
   2  -4  -6  162.34   12.13
   2  -4  -5  142.80   12.26
   2  -4  -4  255.87   11.75
   2  -4  -3  235.85   10.41
   2  -4  -2  256.23    7.57
   2  -4  -1  245.23   10.15
   2  -4   0  130.75    4.52
   2  -4   1  111.01    5.88
   2  -4   2  162.99    7.37
   2  -4   3  103.75    9.14
   2  -4   4  424.26   13.79
   2  -4   5  352.94   16.04
   2  -4   6  121.46   14.10
   2  -4   7   65.12   18.00
   2  -4   8    2.61   18.01
   2  -4   9  193.60   26.70
   2  -4  10  106.16   25.11
   2  -4  11   58.88   24.80
   2  -4  12   42.79   28.00
   2  -3 -13   90.41   26.03
   2  -3 -12  126.00   20.88
   2  -3 -11  133.91   23.02
   2  -3 -10  104.55   28.60
   2  -3  -9  127.70   13.63
   2  -3  -8  144.11   13.94
   2  -3  -7  254.58   14.34
   2  -3  -6  331.77   16.11
   2  -3  -5  361.00   12.44
   2  -3  -4  302.63   23.28
   2  -3  -3  294.49    9.46
   2  -3  -2  324.07   13.44
   2  -3  -1  250.85   10.54
   2  -3   0  140.68   14.31
   2  -3   1  160.40    5.35
   2  -3   2  197.33   11.36
   2  -3   3  140.98    6.78
   2  -3   4  525.38   26.05
   2  -3   5  333.25    8.46
   2  -3   6  108.50    7.34
   2  -3   7  115.32   19.33
   2  -3   8   17.64   17.31
   2  -3   9  290.30   30.39
   2  -3  10  167.21   26.74
   2  -3  11   64.88   26.15
   2  -3  12   27.20   25.14
   2  -2 -13   51.59   25.49
   2  -2 -12  102.92   18.40
   2  -2 -11  108.75   18.61
   2  -2 -10   46.18   11.96
   2  -2  -9   63.04   11.94
   2  -2  -8   84.77   11.48
   2  -2  -7  143.52   14.32
   2  -2  -6  212.06   10.55
   2  -2  -5  195.41   12.37
   2  -2  -4  146.62    8.21
   2  -2  -3  122.67    7.79
   2  -2  -2  211.43    7.58
   2  -2  -1  121.66    6.77
   2  -2   0   90.93   10.22
   2  -2   1   37.08    9.32
   2  -2   2   90.13    5.69
   2  -2   3   35.01    4.58
   2  -2   4  388.65    7.26
   2  -2   5  177.87   17.97
   2  -2   6   23.29   15.38
   2  -2   7   23.92   16.08
   2  -2   8   43.36   18.76
   2  -2   9  166.59   24.82
   2  -2  10   86.04   24.52
   2  -2  11   14.10   22.58
   2  -2  12    4.89   23.29
   2  -1 -13   99.95   20.28
   2  -1 -12   81.81   24.07
   2  -1 -11  239.34   29.67
   2  -1 -10  114.94   10.89
   2  -1  -9  130.80   45.81
   2  -1  -8  177.34   13.38
   2  -1  -7  197.53   11.62
   2  -1  -6  248.14   20.85
   2  -1  -5  150.05    8.36
   2  -1  -4  376.58   14.93
   2  -1  -3  308.15   10.76
   2  -1  -2  613.62   76.24
   2  -1  -1  507.20   78.96
   2  -1   0  561.55   20.31
   2  -1   1  257.02   17.09
   2  -1   2  285.65   14.55
   2  -1   3   60.82    4.43
   2  -1   4  992.29   15.60
   2  -1   5  471.31   49.72
   2  -1   6  141.27   29.88
   2  -1   7   25.35    8.01
   2  -1   8   29.85   18.33
   2  -1  10  118.16   24.80
   2  -1  11  133.89   30.28
   2  -1  12   21.51   13.71
   2   1 -13   34.80   24.00
   2   1 -12  188.93   27.84
   2   1 -11  114.87   36.69
   2   1 -10  169.60   17.04
   2   1  -9  157.03   12.81
   2   1  -8  134.83   11.25
   2   1  -7  208.19   12.78
   2   1  -6  207.27   23.59
   2   1  -5  260.44    9.42
   2   1  -4  351.83   15.16
   2   1  -3  375.74   25.10
   2   1  -2 1107.57   15.28
   2   1  -1  669.55   10.59
   2   1   0  830.12   18.53
   2   1   1  207.55   11.74
   2   1   2  229.14    8.47
   2   1   3   96.18    6.76
   2   1   4 1032.98  213.85
   2   1   5  388.24   15.45
   2   1   6   96.28   11.03
   2   1   7   32.36    3.16
   2   1   8   18.40   20.13
   2   1  10   90.62   20.99
   2   1  11   37.13   22.19
   2   1  12   47.46   22.41
   2   2 -13   42.90   26.49
   2   2 -12   61.54   18.48
   2   2 -11   99.40   17.55
   2   2 -10   91.93   17.21
   2   2  -9   37.06   18.67
   2   2  -8   51.97    9.68
   2   2  -7  119.07    9.60
   2   2  -6  185.20    8.94
   2   2  -5  176.59   13.02
   2   2  -4  134.97   25.55
   2   2  -3   86.23    6.33
   2   2  -2  509.99   13.01
   2   2  -1  132.03    6.45
   2   2   0  262.05   16.90
   2   2   1   10.32    5.56
   2   2   2   50.69    6.72
   2   2   3   12.47    8.20
   2   2   4  597.34   15.20
   2   2   5  152.72   10.86
   2   2   6   27.37    9.71
   2   2   7   36.47   10.99
   2   2   8   62.93   10.23
   2   2   9  104.69   22.76
   2   2  10   64.63   23.22
   2   2  11   23.93   21.25
   2   2  12   11.21   26.37
   2   3 -13  117.27   27.86
   2   3 -12  124.46   20.37
   2   3 -11  155.51   19.14
   2   3 -10  189.85   17.70
   2   3  -9  110.23   11.83
   2   3  -8  135.70   10.39
   2   3  -7  318.08   15.25
   2   3  -6  288.66   16.85
   2   3  -5  348.95   12.36
   2   3  -4  323.14   10.64
   2   3  -3  278.45   10.19
   2   3  -2  846.27   13.01
   2   3  -1  279.98   19.48
   2   3   0  443.47    6.84
   2   3   1   44.06    6.10
   2   3   2  146.42    7.65
   2   3   3  106.99    9.33
   2   3   4  726.34   29.65
   2   3   5  358.94   16.80
   2   3   6  139.99    6.56
   2   3   7   67.32   11.94
   2   3   8   70.20   13.28
   2   3   9  145.43   26.48
   2   3  10   95.65   25.02
   2   3  11   61.90   26.68
   2   4 -12   34.63   24.73
   2   4 -11  106.51   25.09
   2   4 -10  118.91   24.52
   2   4  -9  101.97   19.69
   2   4  -8  104.77   12.49
   2   4  -7  235.97   23.98
   2   4  -6  102.66   17.01
   2   4  -5  143.97   19.19
   2   4  -4  146.18    8.24
   2   4  -3  197.73   18.79
   2   4  -2  683.63   30.16
   2   4  -1  280.63   20.75
   2   4   0  358.22   13.96
   2   4   1  105.43    6.00
   2   4   2  176.35    7.84
   2   4   3  115.22    8.17
   2   4   4  426.23   12.32
   2   4   5  199.60   13.96
   2   4   6  106.35   10.85
   2   4   7   27.28   11.40
   2   4   8   15.59   11.49
   2   4   9   93.37   14.41
   2   4  10   80.88   26.27
   2   4  11   36.83   25.99
   2   5  -8   12.90   15.80
   2   5  -7  116.29   19.80
   2   5  -6   78.73   17.98
   2   5  -5   92.84   17.98
   2   5  -4   42.05   16.51
   2   5  -3   28.30   15.85
   2   5  -2  167.62   20.63
   2   5  -1   22.15   15.40
   2   5   0   39.53   17.12
   2   5   1   10.63   15.45
   2   5   2    7.09    6.16
   2   5   3   12.50    6.74
   2   5   4  165.90    9.53
   2   5   5   51.73    8.62
   2   5   6   29.64   11.46
   2   5   7   21.75   12.55
   2   5   8   41.66   13.82
   2   5   9   27.70   14.32
   2   5  10   18.67   23.69
   2   5  11   17.18   24.35
   2   6  -7  196.96   22.77
   2   6  -6   83.08   19.68
   2   6  -5  110.40   21.10
   2   6  -4   99.81   21.68
   2   6  -3  152.18   21.29
   2   6  -2  309.64   27.15
   2   6  -1  176.53   23.36
   2   6   0  166.98   24.69
   2   6   1  113.12   22.62
   2   6   2  100.42   22.36
   2   6   3   87.53   20.73
   2   6   4  225.38   16.71
   2   6   5  151.22   23.92
   2   6   6  106.11   24.40
   2   6   7   34.65   21.80
   2   6   8   22.00   20.21
   2   6   9   47.17   22.86
   2   7  -7  129.08   24.69
   2   7  -6   16.91   21.10
   2   7  -5   66.05   21.15
   2   7  -4   41.85   21.82
   2   7  -3   72.84   22.76
   2   7  -2  132.47   23.54
   2   7  -1   51.79   23.09
   2   7   0   56.79   21.27
   2   7   1   62.44   23.88
   2   7   2   39.36   21.74
   2   7   3   45.48   24.95
   2   7   4   98.99   23.90
   2   7   5   43.44   24.50
   2   7   6   39.30   23.81
   2   7   7   27.77   23.17
   2   7   8   21.28   25.59
   2   8  -6   14.81   24.28
   2   8  -5   11.14   22.95
   2   8  -4    6.95   23.50
   2   8  -3   25.97   22.83
   2   8  -2   33.21   25.14
   2   8  -1    9.29   24.68
   2   8   0   17.86   22.58
   2   8   1    6.96   25.66
   2   8   2    7.26   26.75
   2   8   3    4.57   25.96
   2   8   4    8.61   24.99
   3  -8  -4   12.52   25.58
   3  -8  -3   11.24   26.10
   3  -8  -2   31.00   24.44
   3  -8  -1   11.43   22.84
   3  -8   0    1.64   23.17
   3  -8   1    8.81   14.34
   3  -8   2   10.54   14.01
   3  -8   3    4.46   13.58
   3  -8   4   29.33   23.12
   3  -8   5    4.79   21.70
   3  -7  -7  112.11   30.23
   3  -7  -6   20.82   26.44
   3  -7  -5   26.98   25.58
   3  -7  -4  103.83   26.93
   3  -7  -3   74.46   24.49
   3  -7  -2  143.04   27.58
   3  -7  -1   70.47   14.04
   3  -7   0   61.69   13.74
   3  -7   1   37.29   13.70
   3  -7   2   44.84   13.74
   3  -7   3   19.21   13.23
   3  -7   4   79.78   15.31
   3  -7   5   51.06   20.97
   3  -7   6   41.61   18.76
   3  -7   7   24.43   23.21
   3  -6 -10  145.47   31.84
   3  -6  -9   71.84   27.65
   3  -6  -8  128.14   27.81
   3  -6  -7  146.30   27.71
   3  -6  -6   69.14   22.76
   3  -6  -5   64.28   23.69
   3  -6  -4  144.37   26.39
   3  -6  -3  117.53   23.85
   3  -6  -2  313.56   20.71
   3  -6  -1  190.11   14.26
   3  -6   0  179.78   14.67
   3  -6   1   95.46   13.61
   3  -6   2  122.71   14.29
   3  -6   3   73.29   12.82
   3  -6   4  186.37   12.90
   3  -6   5   98.22   13.66
   3  -6   6   57.07   20.85
   3  -6   7   36.68   20.63
   3  -6   8   32.56   21.86
   3  -5 -11   15.76   23.57
   3  -5 -10   24.30   22.27
   3  -5  -9   22.40   21.37
   3  -5  -8   55.60   22.86
   3  -5  -7  122.58   24.57
   3  -5  -6   34.59   21.89
   3  -5  -5   34.39   19.68
   3  -5  -4   55.08   19.26
   3  -5  -3   60.46   20.01
   3  -5  -2  176.24   13.18
   3  -5  -1   54.45   12.45
   3  -5   0   81.31   11.43
   3  -5   1   49.81   10.40
   3  -5   2   21.00   10.64
   3  -5   3   22.90   13.71
   3  -5   4  155.18   16.84
   3  -5   5   56.94   10.99
   3  -5   6   30.82   17.55
   3  -5   7   34.96   19.14
   3  -5   8  120.94   25.40
   3  -5   9    9.38   22.22
   3  -5  10    3.28   24.68
   3  -4 -11   76.64   23.79
   3  -4 -10  195.87   26.88
   3  -4  -9  113.37   22.83
   3  -4  -8  146.86   14.33
   3  -4  -7  261.28   15.04
   3  -4  -6   58.18    9.66
   3  -4  -5   47.68    7.83
   3  -4  -4  111.09   10.17
   3  -4  -3  232.48   22.38
   3  -4  -2  706.17   43.04
   3  -4  -1  317.66   12.63
   3  -4   0  351.54   15.19
   3  -4   1  108.21   17.27
   3  -4   2  146.07    5.75
   3  -4   3  104.50   14.26
   3  -4   4  269.51   18.91
   3  -4   5  119.73   10.67
   3  -4   6   59.70   19.49
   3  -4   7   45.56   20.20
   3  -4   8   67.07   21.34
   3  -4   9   98.53   26.39
   3  -4  10   23.97   23.31
   3  -4  11   26.91   25.77
   3  -3 -12   84.76   23.97
   3  -3 -11  108.45   15.56
   3  -3 -10  166.83   15.40
   3  -3  -9   94.89   14.13
   3  -3  -8  141.08   13.33
   3  -3  -7  474.05   17.86
   3  -3  -6  165.50   11.73
   3  -3  -5  193.01   13.39
   3  -3  -4  210.94    8.80
   3  -3  -3  317.91   24.37
   3  -3  -2 1001.92   15.31
   3  -3  -1  422.61   12.53
   3  -3   0  416.94   24.33
   3  -3   1  208.27   15.83
   3  -3   2  285.52    9.84
   3  -3   3  267.41   18.64
   3  -3   4  607.99   21.35
   3  -3   5  258.20   33.00
   3  -3   6  129.13    9.79
   3  -3   7   86.20   21.32
   3  -3   8  142.97   24.49
   3  -3   9   60.09   23.50
   3  -3  10   78.19   26.24
   3  -3  11   63.30   26.43
   3  -2 -13   10.34   23.52
   3  -2 -12  109.39   60.74
   3  -2 -11   41.92   13.55
   3  -2 -10   79.65   14.33
   3  -2  -9   44.51   11.61
   3  -2  -8   65.15   11.57
   3  -2  -7  413.69   17.36
   3  -2  -6   53.93    9.62
   3  -2  -5   77.88    8.65
   3  -2  -4   66.31    8.53
   3  -2  -3  148.89   17.60
   3  -2  -2  834.05   10.73
   3  -2  -1  193.86   18.83
   3  -2   0  167.33   15.99
   3  -2   1  137.82    6.72
   3  -2   2  132.97    7.50
   3  -2   3  161.72   16.30
   3  -2   4  336.20   17.93
   3  -2   5  135.43    9.16
   3  -2   6   86.76    7.23
   3  -2   7   74.09   21.91
   3  -2   8   94.26   21.84
   3  -2   9   64.77   23.69
   3  -2  10   36.17   22.65
   3  -2  11   53.81   26.53
   3  -1 -13   13.85   23.40
   3  -1 -12  111.53   18.48
   3  -1 -11   61.21   15.79
   3  -1 -10  145.63   18.17
   3  -1  -9  227.91   18.00
   3  -1  -8  111.74   16.68
   3  -1  -7  532.24   26.56
   3  -1  -6   45.50   13.68
   3  -1  -5   71.91   10.13
   3  -1  -4   90.88   13.27
   3  -1  -3  272.33   18.81
   3  -1  -2 1495.09   36.41
   3  -1  -1  449.91   21.46
   3  -1   0  505.33   14.71
   3  -1   1  208.76    7.97
   3  -1   2  287.59   21.57
   3  -1   3  225.92   11.44
   3  -1   4  355.80   10.34
   3  -1   5  121.46   11.61
   3  -1   6  106.02   20.23
   3  -1   7  199.06   22.51
   3  -1   8  189.02   25.85
   3  -1   9  101.94   16.77
   3  -1  10   60.00   22.31
   3  -1  11   52.37   23.15
   3   1 -13    0.61   31.03
   3   1 -12   47.68   15.81
   3   1 -11   74.31   15.95
   3   1 -10  129.86   13.41
   3   1  -9  130.91   12.84
   3   1  -8  144.14   17.74
   3   1  -7  635.77   70.10
   3   1  -6   16.90   10.83
   3   1  -5   57.51   12.94
   3   1  -4   89.86   14.55
   3   1  -3  379.25   15.52
   3   1  -2 1487.78   23.28
   3   1  -1  562.15   15.04
   3   1   0  366.13   17.30
   3   1   1  228.86    9.70
   3   1   2  243.68   20.83
   3   1   3  220.13   35.30
   3   1   5  149.58   13.01
   3   1   6  124.46   12.77
   3   1   7  132.39   19.64
   3   1   9   89.05   14.31
   3   1  10   40.85   22.15
   3   1  11   89.03   23.38
   3   2 -13    4.10   25.99
   3   2 -12   88.72   19.34
   3   2 -11   33.57   16.33
   3   2 -10   25.91   10.37
   3   2  -9   74.57   19.68
   3   2  -8   71.39   13.40
   3   2  -7  487.53   47.10
   3   2  -6   16.52   10.01
   3   2  -5   58.30   12.82
   3   2  -4   65.32    8.48
   3   2  -3  177.91    9.05
   3   2  -2  589.86   22.45
   3   2  -1  205.50   12.08
   3   2   0  193.63    9.35
   3   2   1  133.26   18.59
   3   2   2  148.36   10.17
   3   2   3  184.48   17.99
   3   2   4  248.29   23.28
   3   2   5  171.59   12.81
   3   2   6  106.70   11.32
   3   2   7  115.94   15.26
   3   2   8  105.83   22.76
   3   2   9  106.60   24.33
   3   2  10   22.70   24.82
   3   2  11   41.17   26.48
   3   3 -12  143.85   27.07
   3   3 -11   67.20   22.70
   3   3 -10   52.73   19.97
   3   3  -9  102.25   13.67
   3   3  -8  123.21   13.73
   3   3  -7  644.62   19.18
   3   3  -6   88.86   11.17
   3   3  -5  187.42   11.75
   3   3  -4  231.09   17.92
   3   3  -3  394.02   42.32
   3   3  -2  758.34   23.56
   3   3  -1  468.58   12.51
   3   3   0  409.47   14.49
   3   3   1  322.44   12.78
   3   3   2  291.00   20.81
   3   3   3  312.72   14.22
   3   3   4  350.75   16.78
   3   3   5  290.33   15.46
   3   3   6  189.23   34.17
   3   3   7  180.83   14.50
   3   3   8  155.92   14.71
   3   3   9  141.39   26.10
   3   3  10   42.02   24.89
   3   3  11   75.77   28.71
   3   4  -9   89.94   20.46
   3   4  -8   74.40   12.39
   3   4  -7  342.28   17.36
   3   4  -6   34.54   17.15
   3   4  -5   41.50   17.60
   3   4  -4   71.51   17.91
   3   4  -3  183.11   22.25
   3   4  -2  441.46   11.30
   3   4  -1  294.24   11.08
   3   4   0  218.30    7.13
   3   4   1  177.45    8.54
   3   4   2  123.95    9.93
   3   4   3  116.65   11.82
   3   4   4   99.77   11.14
   3   4   5  107.81   22.05
   3   4   6   77.45   12.43
   3   4   7  108.85   15.55
   3   4   8  109.69   15.22
   3   4   9   89.45   24.90
   3   4  10   15.58   24.07
   3   4  11   38.98   27.07
   3   5  -8   23.54   18.85
   3   5  -7  141.30   21.89
   3   5  -6   49.40   19.28
   3   5  -5   46.25   19.76
   3   5  -4   60.38   19.94
   3   5  -3   40.34   17.65
   3   5  -2   82.01   20.58
   3   5  -1  110.48   21.22
   3   5   0  132.19   22.32
   3   5   1   44.33   19.17
   3   5   2   91.72   21.15
   3   5   3  112.96   20.59
   3   5   4  109.47   12.88
   3   5   5   83.58   12.28
   3   5   6   28.44   12.95
   3   5   7   94.58   14.24
   3   5   8   44.22   15.60
   3   5   9   39.67   22.38
   3   5  10   14.45   24.00
   3   6  -8   81.75   22.77
   3   6  -7  188.85   26.91
   3   6  -6   41.55   19.43
   3   6  -5   22.00   20.51
   3   6  -4   60.54   20.40
   3   6  -3   84.27   22.50
   3   6  -2  215.19   25.85
   3   6  -1  211.88   27.36
   3   6   0  158.27   24.69
   3   6   1  131.01   24.40
   3   6   2   89.82   22.70
   3   6   3   82.40   22.79
   3   6   4  110.04   24.00
   3   6   5   83.20   23.95
   3   6   6   34.30   23.33
   3   6   7  117.98   26.25
   3   6   8   63.49   23.55
   3   7  -7   86.44   23.69
   3   7  -6   51.45   24.28
   3   7  -5   14.86   22.83
   3   7  -4   30.79   23.38
   3   7  -3   26.44   21.35
   3   7  -2   51.24   24.16
   3   7  -1   86.20   25.35
   3   7   0   56.88   24.63
   3   7   1   43.21   23.71
   3   7   2   86.69   26.91
   3   7   3   70.00   24.23
   3   7   4   75.53   26.68
   3   7   5   48.53   23.67
   3   7   6    9.44   24.35
   3   7   7   51.10   26.68
   3   8  -3   15.53   25.54
   3   8  -2   40.01   26.03
   3   8  -1   35.77   25.01
   4  -8  -1   22.43   24.85
   4  -8   0    7.53   23.67
   4  -8   1   11.67   23.43
   4  -8   2    7.30   23.00
   4  -8   4   17.47   22.38
   4  -7  -5   13.88   24.71
   4  -7  -4   30.96   23.40
   4  -7  -3   44.29   23.40
   4  -7  -2   81.28   26.06
   4  -7  -1   55.71   22.69
   4  -7   0   24.03   22.48
   4  -7   1   56.96   22.06
   4  -7   2   49.90   15.16
   4  -7   3   79.59   22.64
   4  -7   4   34.21   15.45
   4  -7   5   31.91   22.50
   4  -7   6   45.59   24.97
   4  -6  -8   38.46   27.19
   4  -6  -7  138.42   28.76
   4  -6  -6   22.77   25.18
   4  -6  -5   24.41   23.38
   4  -6  -4   29.32   21.10
   4  -6  -3   45.50   22.72
   4  -6  -2  175.45   26.27
   4  -6  -1   96.67   23.48
   4  -6   0   75.64   20.94
   4  -6   1   80.93   13.30
   4  -6   2   82.53   13.75
   4  -6   3   93.43   14.60
   4  -6   4   31.70   12.63
   4  -6   5   18.92   15.28
   4  -6   6   29.43   20.94
   4  -6   7   59.72   25.46
   4  -6   8   84.70   27.29
   4  -5 -10    0.33   26.49
   4  -5  -9    1.16   23.85
   4  -5  -8   49.63   25.27
   4  -5  -7  129.91   25.28
   4  -5  -6   81.07   25.32
   4  -5  -5   68.39   23.85
   4  -5  -4   62.23   22.19
   4  -5  -3   50.89   21.39
   4  -5  -2   41.59   20.44
   4  -5  -1   77.18   10.80
   4  -5   0   54.68   10.93
   4  -5   1   50.39   11.25
   4  -5   2  110.78   20.06
   4  -5   3  172.13   20.78
   4  -5   4   90.23   18.64
   4  -5   5   60.56   20.59
   4  -5   6   13.33   21.04
   4  -5   7   66.96   23.97
   4  -5   8   54.56   24.99
   4  -5   9   29.29   25.73
   4  -4 -11   25.40   23.59
   4  -4 -10   25.28   22.88
   4  -4  -9   59.78   24.31
   4  -4  -8   77.15   23.60
   4  -4  -7  181.27   27.60
   4  -4  -6   61.87   21.79
   4  -4  -5   16.17   19.76
   4  -4  -4   15.46   18.95
   4  -4  -3   85.32   19.80
   4  -4  -2  165.12   17.25
   4  -4  -1  148.90   11.54
   4  -4   0  107.33   18.64
   4  -4   1   73.55   18.07
   4  -4   2   99.67   18.15
   4  -4   3   58.73   16.73
   4  -4   4   18.58   14.26
   4  -4   5   21.25   10.80
   4  -4   6   11.41   19.68
   4  -4   7  128.60   26.13
   4  -4   8  137.03   26.86
   4  -4   9  106.97   28.00
   4  -3 -11   39.06   23.41
   4  -3 -10   33.65   21.91
   4  -3  -9   55.20   21.48
   4  -3  -8  106.63   23.59
   4  -3  -7  366.32   28.33
   4  -3  -6  231.70   25.73
   4  -3  -5  156.86   22.34
   4  -3  -4  148.17   22.64
   4  -3  -3  205.22   22.45
   4  -3  -2  212.99    8.57
   4  -3  -1  239.32   21.67
   4  -3   0  214.33   22.77
   4  -3   1  185.58   18.74
   4  -3   2  345.57   24.73
   4  -3   3  325.94   20.77
   4  -3   4  194.50   19.49
   4  -3   5  166.56   12.49
   4  -3   6   61.93   21.37
   4  -3   7  202.98   26.43
   4  -3   8  104.11   25.61
   4  -3   9  139.45   28.78
   4  -3  10   49.52   25.91
   4  -2 -11    5.96   14.15
   4  -2 -10    7.36   12.76
   4  -2  -9   32.68   12.80
   4  -2  -8   62.90   12.36
   4  -2  -7  287.01   29.60
   4  -2  -6  158.49   21.70
   4  -2  -5   64.01   20.25
   4  -2  -4   61.58   16.56
   4  -2  -3   56.72   17.22
   4  -2  -2   70.57   16.18
   4  -2  -1  126.83   19.38
   4  -2   0  133.61   17.25
   4  -2   1   49.66   12.50
   4  -2   2  237.24    9.91
   4  -2   3  184.02   12.10
   4  -2   4  137.08   14.24
   4  -2   5   71.73   11.90
   4  -2   6   29.47    9.60
   4  -2   7  133.30   25.04
   4  -2   8   81.34   23.55
   4  -2   9   94.55   27.22
   4  -2  10   34.64   24.09
   4  -1 -13    3.05   22.74
   4  -1 -12  184.16  102.26
   4  -1 -11    8.55   11.81
   4  -1 -10   34.10   12.10
   4  -1  -9   98.15   13.91
   4  -1  -8  101.54   12.95
   4  -1  -7  275.54   23.79
   4  -1  -6   95.26   17.56
   4  -1  -5   31.59   14.59
   4  -1  -4   15.89   16.37
   4  -1  -3   62.96    5.19
   4  -1  -2  121.86   16.68
   4  -1  -1  186.15   16.84
   4  -1   0  180.16   15.88
   4  -1   1   37.73    7.76
   4  -1   2  222.55   11.14
   4  -1   3  106.23   13.36
   4  -1   4   44.38   13.48
   4  -1   5   23.39    7.97
   4  -1   6    1.22   10.47
   4  -1   7  246.50   26.30
   4  -1   8  135.27   24.31
   4  -1   9  103.58   23.64
   4  -1  10    8.59    9.59
   4   1 -13    0.78   32.64
   4   1 -12   17.79   19.33
   4   1 -11    2.69   28.17
   4   1 -10   37.07   13.43
   4   1  -9  116.28   27.70
   4   1  -8  119.53   49.14
   4   1  -7  214.47   20.73
   4   1  -6  114.51   19.40
   4   1  -5   20.11   16.54
   4   1  -4    1.30   14.83
   4   1  -3   35.26   13.24
   4   1  -2   93.94   16.20
   4   1  -1  202.91   18.50
   4   1   0  165.45    8.63
   4   1   1   12.55    6.01
   4   1   2  300.11   14.92
   4   1   3  112.25   10.46
   4   1   4   48.32   13.85
   4   1   5   13.30    8.57
   4   1   6    1.75    9.57
   4   1   7  161.73   20.92
   4   1   8  177.07   25.63
   4   1   9  177.09   30.06
   4   1  10   58.51   23.50
   4   2 -10    9.21   16.09
   4   2  -9   41.76   14.31
   4   2  -8   66.41   13.22
   4   2  -7  128.29   16.01
   4   2  -6  188.78   13.95
   4   2  -5   84.91   10.68
   4   2  -4  133.96   44.00
   4   2  -3   53.97    7.37
   4   2  -2   54.99   16.15
   4   2  -1   79.78   18.90
   4   2   0   80.55   12.43
   4   2   1    3.03    5.45
   4   2   2  296.99   23.02
   4   2   3  131.38   13.05
   4   2   4  132.65   12.63
   4   2   5   37.24   11.31
   4   2   6    6.06   10.84
   4   2   7  125.07   22.98
   4   2   8   71.37   23.03
   4   2   9   67.36   24.40
   4   2  10   40.68   26.91
   4   3 -10   35.56   19.99
   4   3  -9   66.13   20.21
   4   3  -8   79.93   21.37
   4   3  -7  135.47   21.80
   4   3  -6  297.90   26.68
   4   3  -5  180.68   22.81
   4   3  -4  102.52   21.53
   4   3  -3  168.57   21.96
   4   3  -2  202.41   22.74
   4   3  -1  211.87   22.60
   4   3   0  167.25   21.65
   4   3   1   22.45    9.39
   4   3   2  462.89   17.99
   4   3   3  240.29   15.39
   4   3   4  241.98   15.60
   4   3   5  113.41   13.83
   4   3   6   48.18   12.28
   4   3   7  176.76   16.12
   4   3   8  149.62   26.39
   4   3   9  100.06   25.30
   4   3  10   52.55   26.60
   4   4  -9   56.85   22.76
   4   4  -8   69.44   22.12
   4   4  -7   69.55   22.45
   4   4  -6   87.26   21.89
   4   4  -5    1.43   18.86
   4   4  -4    3.31   18.57
   4   4  -3   35.26   20.47
   4   4  -2   60.71   20.16
   4   4  -1  105.98   21.79
   4   4   0   94.11   22.71
   4   4   1    1.17   12.14
   4   4   2  200.53   13.20
   4   4   3   44.34   10.90
   4   4   4   28.63   18.01
   4   4   5    7.09   11.67
   4   4   6   12.26   12.80
   4   4   7   89.43   15.54
   4   4   8   66.39   23.19
   4   4   9   58.29   26.11
   4   4  10   33.05   25.14
   4   5  -9    5.12   19.14
   4   5  -8   27.37   20.61
   4   5  -7   20.57   21.39
   4   5  -6  130.05   25.11
   4   5  -5   93.52   23.09
   4   5  -4   20.61   20.13
   4   5  -3   55.00   20.25
   4   5  -2   31.94   21.03
   4   5  -1    6.81   18.53
   4   5   0   10.65   20.25
   4   5   1   14.06   19.28
   4   5   2  196.60   27.03
   4   5   3  110.39   22.96
   4   5   4  121.76   23.64
   4   5   5   26.70   20.84
   4   5   6   23.55   22.29
   4   5   7   30.97   21.13
   4   6  -8   58.10   26.17
   4   6  -7   53.41   23.26
   4   6  -6   52.78   22.43
   4   6  -5   26.79   22.50
   4   6  -4    0.30   22.95
   4   6  -3   38.93   23.48
   4   6  -2   68.84   24.75
   4   6  -1   63.88   22.25
   4   6   0   70.35   23.60
   4   6   1    0.41   21.42
   4   6   2  136.20   25.85
   4   6   3   30.60   23.09
   4   6   4   17.76   21.84
   4   6   5    6.18   22.96
   4   6   6   20.62   23.35
   4   6   7   61.78   25.91
   4   7  -5   30.53   25.34
   4   7  -4    0.99   24.21
   4   7  -3   40.53   24.82
   4   7  -2   49.84   24.92
   4   7  -1   46.96   25.59
   4   7   0   44.12   24.92
   4   7   1    7.13   23.71
   4   7   2  113.35   29.16
   4   7   3   30.02   25.08
   5  -7  -2   35.47   24.80
   5  -7  -1   38.98   24.49
   5  -7   0   31.97   23.52
   5  -7   1    8.51   22.72
   5  -7   2   76.88   25.68
   5  -7   4    4.80   22.70
   5  -7   5   25.77   24.19
   5  -6  -6   73.76   28.88
   5  -6  -5   16.62   24.05
   5  -6  -4   27.52   23.66
   5  -6  -3   67.82   25.13
   5  -6  -2   29.90   23.29
   5  -6  -1   93.36   24.44
   5  -6   0   69.07   22.06
   5  -6   1    6.26   21.08
   5  -6   2  127.92   23.66
   5  -6   3   32.65   20.73
   5  -6   4   23.23   19.52
   5  -6   5    4.89   23.19
   5  -6   6   12.98   24.89
   5  -5  -8   12.86   26.67
   5  -5  -7   16.63   26.53
   5  -5  -6  132.93   28.66
   5  -5  -5   81.10   25.14
   5  -5  -4   64.59   23.09
   5  -5  -3   71.59   22.98
   5  -5  -2   21.94   20.99
   5  -5  -1   11.23   20.04
   5  -5   0    7.53   20.82
   5  -5   1    0.60   19.19
   5  -5   2  185.04   24.07
   5  -5   3  106.51   21.35
   5  -5   4   26.59   16.68
   5  -5   5   23.64   21.60
   5  -5   6   15.98   23.10
   5  -5   7   22.74   24.64
   5  -4 -10   51.42   27.90
   5  -4  -9   46.20   28.17
   5  -4  -8   35.41   21.86
   5  -4  -7   37.71   23.50
   5  -4  -6  119.25   25.96
   5  -4  -5    3.58   22.53
   5  -4  -4   19.40   20.47
   5  -4  -3   38.92   22.27
   5  -4  -2   45.49   20.80
   5  -4  -1   72.67   21.15
   5  -4   0   73.30   20.78
   5  -4   1    4.34   17.77
   5  -4   2  138.49   22.19
   5  -4   3   24.97   16.15
   5  -4   4    1.05   15.33
   5  -4   5    5.27   20.87
   5  -4   6   12.14   22.98
   5  -4   7   83.84   25.73
   5  -4   8   65.93   27.29
   5  -3 -11  117.67   30.32
   5  -3 -10   93.92   27.90
   5  -3  -9   90.51   25.92
   5  -3  -8   76.69   25.63
   5  -3  -7   82.07   24.49
   5  -3  -6  333.29   30.53
   5  -3  -5  210.90   27.22
   5  -3  -4  130.54   23.88
   5  -3  -3  180.80   25.11
   5  -3  -2  123.74   21.48
   5  -3  -1  105.87   21.35
   5  -3   0  102.14   19.99
   5  -3   1    9.01   16.35
   5  -3   2  461.50   27.67
   5  -3   3  200.42   22.01
   5  -3   4  100.36   17.55
   5  -3   5   41.94   21.65
   5  -3   6   25.44   22.98
   5  -3   7   92.96   26.03
   5  -3   8   39.22   26.06
   5  -2 -11   79.65   25.99
   5  -2 -10   46.21   24.45
   5  -2  -9   31.79   22.67
   5  -2  -8   41.39   21.86
   5  -2  -7   39.35   21.46
   5  -2  -6  169.75   24.63
   5  -2  -5   79.81   22.25
   5  -2  -4   29.50   19.87
   5  -2  -3  122.43   20.46
   5  -2  -2  102.84   20.54
   5  -2  -1   51.74   18.67
   5  -2   0   33.36   17.48
   5  -2   1    5.15   15.47
   5  -2   2  335.50   26.43
   5  -2   3   82.52   17.31
   5  -2   4   46.95   15.85
   5  -2   5   24.32   11.22
   5  -2   6   20.29   21.80
   5  -2   7   75.44   25.70
   5  -2   8   38.75   25.14
   5  -1 -11   90.50   26.24
   5  -1 -10  102.25   23.15
   5  -1  -9   47.75   17.81
   5  -1  -8   47.46   19.02
   5  -1  -7   26.91   13.81
   5  -1  -6  107.37   22.45
   5  -1  -5   44.15   18.86
   5  -1  -4   16.43   21.70
   5  -1  -3  135.22   21.16
   5  -1  -2  156.12   21.01
   5  -1  -1   87.26   17.44
   5  -1   0   67.15   16.94
   5  -1   1   57.70   15.52
   5  -1   2  295.22   22.29
   5  -1   3   62.27   14.62
   5  -1   4   16.15    8.69
   5  -1   5   13.09    8.74
   5  -1   6   16.08   10.71
   5  -1   7   47.42   17.79
   5  -1   8   48.75   17.84
   5  -1   9   49.62   22.50
   5   1 -10   68.91   22.01
   5   1  -9   39.39   11.01
   5   1  -8   39.86   14.04
   5   1  -7   65.42   21.42
   5   1  -6   77.74   20.59
   5   1  -5   44.83   23.71
   5   1  -4    9.64   18.21
   5   1  -3  150.00   22.72
   5   1  -2  164.30   22.76
   5   1  -1   58.04   17.37
   5   1   0   96.34   16.70
   5   1   1   50.60   16.25
   5   1   2  312.15   24.35
   5   1   3   45.57   15.37
   5   1   4    9.27    7.20
   5   1   5   14.96    9.77
   5   1   6   30.28   18.38
   5   1   7   59.32   20.56
   5   1   8  113.99   25.16
   5   1   9   74.93   24.09
   5   2 -11   72.77   24.37
   5   2 -10   36.06   21.67
   5   2  -9   24.08   22.00
   5   2  -8   38.82   20.70
   5   2  -7   67.26   22.58
   5   2  -6  117.19   24.31
   5   2  -5   81.44   20.30
   5   2  -4   27.16   21.51
   5   2  -3  220.09   23.93
   5   2  -2  140.59   23.88
   5   2  -1    7.67   18.14
   5   2   0   10.97   17.51
   5   2   1   21.15   17.32
   5   2   2  339.90   27.19
   5   2   3   92.01   13.19
   5   2   4   31.23   12.95
   5   2   5   27.00   12.34
   5   2   6   20.06   12.74
   5   2   7   23.16   21.51
   5   2   8   19.87   24.16
   5   2   9   35.48   26.17
   5   3 -10   55.61   23.29
   5   3  -9   46.16   24.90
   5   3  -8   47.43   22.19
   5   3  -7  145.20   26.84
   5   3  -6  160.89   25.49
   5   3  -5  165.14   27.76
   5   3  -4   72.22   22.20
   5   3  -3  265.72   29.18
   5   3  -2  210.14   24.83
   5   3  -1   62.40   20.20
   5   3   0   75.93   21.55
   5   3   1   70.95   21.67
   5   3   2  442.86   53.12
   5   3   3  184.52   17.75
   5   3   4  108.78   15.53
   5   3   5   71.40   14.77
   5   3   6   65.39   14.60
   5   3   7  101.97   25.72
   5   3   8   44.09   24.35
   5   3   9   76.13   28.81
   5   4 -10   26.19   23.93
   5   4  -9   49.92   25.89
   5   4  -8   13.04   23.09
   5   4  -7   81.01   24.19
   5   4  -6   29.22   22.51
   5   4  -5   36.76   20.94
   5   4  -4   11.10   20.78
   5   4  -3  157.36   24.73
   5   4  -2  105.65   24.00
   5   4  -1   60.51   22.08
   5   4   0   63.50   23.50
   5   4   1   59.18   21.10
   5   4   2  154.31   25.84
   5   4   3   47.56   20.85
   5   4   4   23.69   13.58
   5   4   5   25.56   13.76
   5   4   6   22.37   14.69
   5   4   7   46.60   22.46
   5   4   8   45.72   25.58
   5   5  -8   12.02   25.21
   5   5  -7   29.97   25.30
   5   5  -6   53.07   26.25
   5   5  -5   77.53   25.70
   5   5  -4   41.92   23.93
   5   5  -3  130.70   28.50
   5   5  -2   37.23   21.89
   5   5  -1   21.33   23.97
   5   5   0    8.98   23.17
   5   5   1    3.16   21.04
   5   5   2  107.31   24.61
   5   5   3   76.93   25.27
   5   5   4   50.46   23.86
   5   5   5   11.70   21.89
   5   5   6    0.97   20.47
   5   6  -5   53.83   26.29
   5   6  -4   60.59   25.65
   5   6  -3  118.61   28.80
   5   6  -2   55.79   25.79
   5   6  -1   50.70   26.46
   5   6   0   44.59   25.75
   5   6   1   39.87   27.17
   5   6   2   82.56   26.08
   5   6   3   55.36   25.11
   5   6   4   49.59   27.24
   6  -6  -2  107.88   30.09
   6  -6  -1   51.18   26.10
   6  -6   0   49.13   24.57
   6  -6   1   50.18   25.70
   6  -6   2  121.40   26.84
   6  -5  -5   45.28   25.96
   6  -5  -4   37.03   25.61
   6  -5  -3   60.21   26.68
   6  -5  -2   31.01   24.40
   6  -5  -1    0.05   22.41
   6  -5   0    6.21   22.48
   6  -5   1   14.77   21.29
   6  -5   2   79.55   23.22
   6  -5   3   24.47   20.07
   6  -4  -7   47.01   27.71
   6  -4  -6   56.26   28.00
   6  -4  -5   29.80   23.28
   6  -4  -4   27.02   22.84
   6  -4  -3  163.05   28.40
   6  -4  -2  107.64   25.40
   6  -4  -1  115.04   25.40
   6  -4   0   71.10   23.19
   6  -4   1   79.03   23.66
   6  -4   2   88.59   22.98
   6  -4   3   42.74   20.23
   6  -4   5   43.55   25.73
   6  -3  -8   40.76   27.86
   6  -3  -7  130.83   28.43
   6  -3  -6  111.08   27.84
   6  -3  -5   98.56   25.37
   6  -3  -4  134.32   25.09
   6  -3  -3  191.35   28.50
   6  -3  -2  109.96   24.59
   6  -3  -1   66.12   21.49
   6  -3   0   63.90   20.80
   6  -3   1  117.60   23.14
   6  -3   2  183.27   23.86
   6  -3   3  134.06   22.76
   6  -3   4  143.43   20.85
   6  -3   5   68.57   26.17
   6  -3   6   77.69   27.88
   6  -2  -9   37.95   29.64
   6  -2  -8   37.90   26.18
   6  -2  -7   71.40   24.90
   6  -2  -6   17.59   22.53
   6  -2  -5   45.42   21.80
   6  -2  -4   49.09   23.60
   6  -2  -3  144.48   23.97
   6  -2  -2   71.02   20.47
   6  -2  -1   59.24   21.72
   6  -2   0   46.55   21.16
   6  -2   1   97.00   20.52
   6  -2   2  125.50   23.50
   6  -2   3   48.10   19.09
   6  -2   4   53.89   19.85
   6  -2   5   14.69   22.60
   6  -2   6   41.94   25.46
   6  -1 -10   37.21   19.30
   6  -1  -9   77.55   24.99
   6  -1  -8   16.29   19.59
   6  -1  -7   47.42   22.12
   6  -1  -6   38.99   18.15
   6  -1  -5   71.95   19.11
   6  -1  -4   85.82   21.55
   6  -1  -3  155.96   22.81
   6  -1  -2  124.16   19.31
   6  -1  -1  119.59   21.60
   6  -1   0  126.28   20.33
   6  -1   1  125.53   21.72
   6  -1   2   74.36   19.16
   6  -1   3   71.39   18.64
   6  -1   4   97.46   17.76
   6  -1   5   42.87   20.21
   6  -1   6   71.62   19.64
   6   1  -9   70.48   29.49
   6   1  -8   83.32   25.40
   6   1  -7  104.67   25.11
   6   1  -6   85.44   24.99
   6   1  -5   64.02   21.89
   6   1  -4   79.43   22.70
   6   1  -3  148.74   24.02
   6   1  -2  159.26   31.03
   6   1  -1  204.17   25.85
   6   1   0  180.50   23.52
   6   1   1  121.63   21.08
   6   1   2   59.39   18.27
   6   1   3   80.21   18.60
   6   1   4  117.78   16.14
   6   1   5   46.00   19.73
   6   1   6  117.52   27.10
   6   1   7  102.32   25.21
   6   2  -9   19.59   23.85
   6   2  -8   26.11   26.60
   6   2  -7   41.40   23.86
   6   2  -6   49.32   22.91
   6   2  -5   44.56   24.45
   6   2  -4   40.80   21.37
   6   2  -3  123.29   24.47
   6   2  -2   55.64   22.98
   6   2  -1   52.90   23.86
   6   2   0   62.66   21.01
   6   2   1   47.60   21.32
   6   2   2   29.90   20.65
   6   2   3   49.05   14.70
   6   2   4   95.01   16.49
   6   2   5   18.93   13.90
   6   2   6   12.37   23.67
   6   2   7   18.04   23.45
   6   3  -8   30.00   27.43
   6   3  -7   52.33   25.99
   6   3  -6   54.46   25.27
   6   3  -5   58.21   23.59
   6   3  -4   80.38   26.17
   6   3  -3  109.93   25.42
   6   3  -2  137.81   27.39
   6   3  -1   99.27   25.75
   6   3   0  118.18   27.52
   6   3   1   86.23   22.95
   6   3   2   76.31   15.09
   6   3   3   65.08   15.95
   6   3   4  137.85   21.50
   6   3   5   30.45   14.77
   6   3   6   54.48   24.38
   6   3   7   71.48   26.56
   6   4  -6   13.35   26.20
   6   4  -5   33.12   27.05
   6   4  -4   30.00   25.21
   6   4  -3   78.67   28.09
   6   4  -2  116.89   27.43
   6   4  -1   88.48   27.08
   6   4   0  121.41   27.86
   6   4   1   41.18   23.76
   6   4   2   68.04   24.71
   6   4   3   38.70   23.86
   6   4   4  105.47   25.49
   6   4   5   31.66   22.24
   6   5  -2   11.32   25.04
   6   5  -1    0.20   27.38
   6   5   0   32.62   27.65
   6   5   1    7.17   25.47
   6   5   2    2.00   25.63
   6   5   3    2.50   26.13
   7  -5   1    6.17   23.90
   7  -5   2    3.71   22.72
   7  -4  -2   43.11   26.84
   7  -4  -1   47.33   25.63
   7  -4   0   90.17   24.49
   7  -4   1   45.09   25.42
   7  -4   2   19.57   20.89
   7  -3  -4   54.86   26.37
   7  -3  -3    2.03   26.30
   7  -3  -2  104.69   28.12
   7  -3  -1   61.82   25.06
   7  -3   0   92.70   26.72
   7  -3   1   49.49   23.71
   7  -3   2   23.90   21.41
   7  -3   3   58.20   22.81
   7  -2  -5    0.49   28.00
   7  -2  -4   14.60   25.32
   7  -2  -3    4.85   23.19
   7  -2  -2   48.60   22.06
   7  -2  -1   33.05   22.96
   7  -2   0   42.82   24.12
   7  -2   1   15.65   21.72
   7  -2   2    2.52   21.32
   7  -2   3   20.89   21.96
   7  -1  -6   60.75   27.79
   7  -1  -5   45.59   20.78
   7  -1  -4   36.50   23.90
   7  -1  -3    8.49    4.41
   7  -1  -2   57.29   24.90
   7  -1  -1   27.12   17.32
   7  -1   0   80.92   20.66
   7  -1   1   28.45   20.16
   7  -1   2   18.46   17.03
   7  -1   3   32.66   18.41
   7   1  -6   65.08   29.87
   7   1  -5   55.65   26.29
   7   1  -4   16.98   23.73
   7   1  -3   29.75   23.48
   7   1  -2   32.60   18.55
   7   1  -1   21.00   20.18
   7   1   0   78.12   24.02
   7   1   1    1.47   24.30
   7   1   2   57.96   21.29
   7   1   3   40.94   16.36
   7   1   4   40.29   23.59
   7   2  -4   16.79   26.30
   7   2  -3   19.50   25.34
   7   2  -2   23.83   24.68
   7   2  -1   53.16   26.04
   7   2   0   41.07   25.34
   7   2   1   14.70   23.02
   7   2   2   35.84   16.75
   7   2   3   22.63   16.17
   7   2   4   23.92   17.68
   7   2   5    6.85   24.37
   7   3  -2   75.21   28.59
   7   3  -1   26.16   27.91
   7   3   0   82.75   28.52
   7   3   1   46.58   26.56
   7   3   2   61.27   25.34
   7   3   3   36.53   25.79
   7   3   4   11.31   24.26
   0   0   0    0.00    0.00
;
_shelx_hkl_checksum              60442
_olex2_submission_special_instructions 'No special instructions were received'
loop_
_space_group_symop_operation_xyz
'x, y, z'
loop_
_atom_site_label
_atom_site_type_symbol
_atom_site_fract_x
_atom_site_fract_y
_atom_site_fract_z
_atom_site_U_iso_or_equiv
_atom_site_adp_type
_atom_site_occupancy
_atom_site_site_symmetry_order
_atom_site_calc_flag
_atom_site_refinement_flags_posn
_atom_site_refinement_flags_adp
Co01 Co 0.00005(15) 0.00001(14) 0.00004(12) 0.0154(3) Uani 1 1 d . .
O2 O -0.2758(10) -0.0167(8) 0.1302(6) 0.0228(14) Uani 1 1 d . U
O1 O 0.0720(12) 0.0024(8) 0.1947(6) 0.0181(16) Uani 1 1 d . U
O4 O -0.1364(12) 0.0003(9) 0.8197(7) 0.0246(17) Uani 1 1 d . U
C7 C -0.1227(14) -0.0081(10) 0.2189(8) 0.0136(17) Uani 1 1 d . U
C6 C 0.0014(19) 0.0222(14) 0.4432(11) 0.030(3) Uani 1 1 d . U
H6 H 0.1449 0.0476 0.4208 0.036 Uiso 1 1 calc R .
O1W O 0.3359(10) 0.0202(8) -0.0236(6) 0.0249(14) Uani 1 1 d . .
H1WA H 0.4114 0.0269 0.0484 0.037 Uiso 1 1 d GR .
H1WB H 0.4159 0.0713 -0.0845 0.037 Uiso 1 1 d GR .
N1 N -0.0055(17) 0.3159(12) -0.0058(10) 0.0110(19) Uani 1 1 d . U
C2 C -0.3938(15) -0.0426(12) 0.3872(9) 0.024(2) Uani 1 1 d . U
H2 H -0.5141 -0.0587 0.3265 0.029 Uiso 1 1 calc R .
N2 N 0.002(2) 0.6839(13) -0.0056(10) 0.021(2) Uani 1 1 d . .
C4 C -0.2552(15) -0.0239(11) 0.6096(9) 0.0221(19) Uani 1 1 d . U
C8 C -0.2980(15) -0.0287(12) 0.7403(9) 0.0220(19) Uani 1 1 d . U
C10 C 0.0948(18) 0.6104(11) -0.1228(9) 0.026(2) Uani 1 1 d . .
H10A H 0.0011 0.6458 -0.1971 0.031 Uiso 1 1 calc R .
H10B H 0.2425 0.6678 -0.1291 0.031 Uiso 1 1 calc R .
C1 C -0.1769(15) -0.0083(12) 0.3497(8) 0.0211(19) Uani 1 1 d . U
C12 C -0.2287(17) 0.5954(12) -0.0026(11) 0.032(2) Uani 1 1 d . .
H12A H -0.3234 0.6418 -0.0732 0.038 Uiso 1 1 calc R .
H12B H -0.2887 0.6319 0.0744 0.038 Uiso 1 1 calc R .
O3 O -0.4920(16) -0.0644(12) 0.7642(9) 0.064(2) Uani 1 1 d . U
C14 C 0.1318(18) 0.6137(12) 0.1052(9) 0.027(2) Uani 1 1 d . .
H14A H 0.0708 0.6561 0.1804 0.032 Uiso 1 1 calc R .
H14B H 0.2835 0.6662 0.1066 0.032 Uiso 1 1 calc R .
C11 C -0.2297(16) 0.3805(12) -0.0089(11) 0.029(2) Uani 1 1 d . .
H11A H -0.3013 0.3263 0.0617 0.035 Uiso 1 1 calc R .
H11B H -0.3149 0.3372 -0.0859 0.035 Uiso 1 1 calc R .
C3 C -0.4276(17) -0.0522(12) 0.5128(9) 0.029(2) Uani 1 1 d . U
H3 H -0.5712 -0.0786 0.5347 0.035 Uiso 1 1 calc R .
C9 C 0.1054(17) 0.4035(12) -0.1181(8) 0.025(2) Uani 1 1 d . .
H9A H 0.2597 0.3714 -0.1122 0.030 Uiso 1 1 calc R .
H9B H 0.0323 0.3501 -0.1957 0.030 Uiso 1 1 calc R .
C13 C 0.1328(18) 0.3984(12) 0.1070(9) 0.029(2) Uani 1 1 d . .
H13A H 0.2843 0.3603 0.1071 0.035 Uiso 1 1 calc R .
H13B H 0.0743 0.3503 0.1834 0.035 Uiso 1 1 calc R .
C5 C -0.038(2) 0.0142(15) 0.5673(12) 0.037(3) Uani 1 1 d . U
H5 H 0.0815 0.0344 0.6278 0.045 Uiso 1 1 calc R .
loop_
_atom_site_aniso_label
_atom_site_aniso_U_11
_atom_site_aniso_U_22
_atom_site_aniso_U_33
_atom_site_aniso_U_23
_atom_site_aniso_U_13
_atom_site_aniso_U_12
Co01 0.0142(5) 0.0219(6) 0.0100(5) -0.0013(3) 0.0012(4) 0.0007(4)
O2 0.0236(18) 0.0233(17) 0.0217(18) -0.0002(12) 0.0032(13) 0.0009(13)
O1 0.0179(19) 0.0179(19) 0.0186(19) -0.0002(12) 0.0022(13) 0.0004(13)
O4 0.024(2) 0.025(2) 0.024(2) -0.0001(13) 0.0023(13) 0.0013(13)
C7 0.014(2) 0.013(2) 0.013(2) -0.0002(13) 0.0012(13) 0.0009(13)
C6 0.029(3) 0.031(3) 0.030(3) 0.0002(14) 0.0029(14) 0.0021(14)
O1W 0.019(3) 0.029(3) 0.027(4) -0.007(3) 0.004(3) 0.000(3)
N1 0.011(2) 0.012(2) 0.010(2) -0.0006(13) 0.0011(13) 0.0006(13)
C2 0.024(2) 0.024(2) 0.023(2) 0.0005(13) 0.0023(14) 0.0012(13)
N2 0.031(5) 0.025(5) 0.007(4) 0.000(3) 0.008(3) -0.001(3)
C4 0.022(2) 0.023(2) 0.022(2) -0.0004(13) 0.0020(14) 0.0020(13)
C8 0.021(2) 0.023(2) 0.022(2) -0.0001(13) 0.0022(13) 0.0020(13)
C10 0.041(6) 0.021(5) 0.018(5) 0.001(3) 0.017(4) 0.005(4)
C1 0.021(2) 0.021(2) 0.021(2) 0.0001(13) 0.0022(14) 0.0018(13)
C12 0.028(6) 0.027(5) 0.042(6) 0.006(4) 0.015(5) 0.000(4)
O3 0.061(3) 0.069(3) 0.062(3) -0.001(2) 0.009(2) 0.003(2)
C14 0.036(6) 0.025(5) 0.016(5) -0.001(4) -0.010(4) 0.007(4)
C11 0.020(5) 0.022(5) 0.045(7) -0.002(4) -0.002(5) 0.001(4)
C3 0.029(2) 0.030(2) 0.029(2) -0.0003(14) 0.0030(14) 0.0016(14)
C9 0.036(6) 0.033(5) 0.009(4) 0.003(3) 0.013(4) 0.008(4)
C13 0.031(6) 0.030(5) 0.023(5) -0.002(4) -0.014(4) 0.001(4)
C5 0.037(3) 0.038(3) 0.037(3) 0.0001(14) 0.0029(14) 0.0024(14)
loop_
_atom_type_symbol
_atom_type_description
_atom_type_scat_dispersion_real
_atom_type_scat_dispersion_imag
_atom_type_scat_source
C C 0.0033 0.0016 'International Tables Vol C Tables 4.2.6.8 and 6.1.1.4'
H H 0.0000 0.0000 'International Tables Vol C Tables 4.2.6.8 and 6.1.1.4'
Co Co 0.3494 0.9721 'International Tables Vol C Tables 4.2.6.8 and 6.1.1.4'
N N 0.0061 0.0033 'International Tables Vol C Tables 4.2.6.8 and 6.1.1.4'
O O 0.0106 0.0060 'International Tables Vol C Tables 4.2.6.8 and 6.1.1.4'
loop_
_geom_angle_atom_site_label_1
_geom_angle_atom_site_label_2
_geom_angle_atom_site_label_3
_geom_angle
_geom_angle_site_symmetry_1
_geom_angle_site_symmetry_3
O1 Co01 O2 59.1(3) . .
O1 Co01 N1 91.4(3) . .
O1 Co01 N2 91.7(3) . 1_545
O4 Co01 O2 108.9(3) 1_554 .
O4 Co01 O1 168.0(3) 1_554 .
O4 Co01 O1W 101.7(3) 1_554 .
O4 Co01 N1 87.4(3) 1_554 .
O4 Co01 N2 89.6(4) 1_554 1_545
O1W Co01 O2 149.4(2) . .
O1W Co01 O1 90.3(3) . .
O1W Co01 N1 89.7(3) . .
O1W Co01 N2 90.2(4) . 1_545
N1 Co01 O2 90.8(3) . .
N2 Co01 O2 90.9(3) 1_545 .
N2 Co01 N1 176.9(5) 1_545 .
C7 O2 Co01 85.9(5) . .
C7 O1 Co01 95.4(5) . .
C8 O4 Co01 150.7(7) . 1_556
O2 C7 C1 120.1(8) . .
O1 C7 O2 119.6(8) . .
O1 C7 C1 120.3(8) . .
C1 C6 H6 120.3 . .
C5 C6 H6 120.3 . .
C5 C6 C1 119.3(9) . .
Co01 O1W H1WA 109.8 . .
Co01 O1W H1WB 133.3 . .
H1WA O1W H1WB 110.8 . .
C11 N1 Co01 112.3(7) . .
C11 N1 C9 108.6(9) . .
C11 N1 C13 109.4(9) . .
C9 N1 Co01 112.9(6) . .
C13 N1 Co01 109.7(7) . .
C13 N1 C9 103.7(9) . .
C1 C2 H2 119.8 . .
C3 C2 H2 119.8 . .
C3 C2 C1 120.3(9) . .
C10 N2 Co01 113.2(6) . 1_565
C12 N2 Co01 111.0(7) . 1_565
C12 N2 C10 107.2(9) . .
C14 N2 Co01 110.3(7) . 1_565
C14 N2 C10 108.6(10) . .
C14 N2 C12 106.3(9) . .
C3 C4 C8 121.5(9) . .
C3 C4 C5 114.8(10) . .
C5 C4 C8 123.7(9) . .
O4 C8 C4 117.3(9) . .
O3 C8 O4 125.4(10) . .
O3 C8 C4 117.3(9) . .
N2 C10 H10A 109.4 . .
N2 C10 H10B 109.4 . .
H10A C10 H10B 108.0 . .
C9 C10 N2 111.1(7) . .
C9 C10 H10A 109.4 . .
C9 C10 H10B 109.4 . .
C6 C1 C7 116.9(8) . .
C6 C1 C2 118.8(8) . .
C2 C1 C7 124.2(8) . .
N2 C12 H12A 109.4 . .
N2 C12 H12B 109.4 . .
N2 C12 C11 111.4(7) . .
H12A C12 H12B 108.0 . .
C11 C12 H12A 109.4 . .
C11 C12 H12B 109.4 . .
N2 C14 H14A 109.2 . .
N2 C14 H14B 109.2 . .
N2 C14 C13 112.1(8) . .
H14A C14 H14B 107.9 . .
C13 C14 H14A 109.2 . .
C13 C14 H14B 109.2 . .
N1 C11 C12 111.5(7) . .
N1 C11 H11A 109.3 . .
N1 C11 H11B 109.3 . .
C12 C11 H11A 109.3 . .
C12 C11 H11B 109.3 . .
H11A C11 H11B 108.0 . .
C2 C3 C4 123.0(9) . .
C2 C3 H3 118.5 . .
C4 C3 H3 118.5 . .
N1 C9 H9A 109.2 . .
N1 C9 H9B 109.2 . .
C10 C9 N1 112.2(7) . .
C10 C9 H9A 109.2 . .
C10 C9 H9B 109.2 . .
H9A C9 H9B 107.9 . .
N1 C13 C14 110.7(7) . .
N1 C13 H13A 109.5 . .
N1 C13 H13B 109.5 . .
C14 C13 H13A 109.5 . .
C14 C13 H13B 109.5 . .
H13A C13 H13B 108.1 . .
C6 C5 C4 123.7(10) . .
C6 C5 H5 118.2 . .
C4 C5 H5 118.2 . .
loop_
_geom_bond_atom_site_label_1
_geom_bond_atom_site_label_2
_geom_bond_distance
_geom_bond_site_symmetry_2
Co01 O2 2.267(6) .
Co01 O1 2.080(7) .
Co01 O4 2.020(7) 1_554
Co01 O1W 2.069(6) .
Co01 N1 2.243(8) .
Co01 N2 2.245(9) 1_545
O2 C7 1.259(9) .
O1 C7 1.228(10) .
O4 Co01 2.020(7) 1_556
O4 C8 1.241(11) .
C7 C1 1.463(12) .
C6 H6 0.9300 .
C6 C1 1.407(14) .
C6 C5 1.367(13) .
O1W H1WA 0.8553 .
O1W H1WB 0.9076 .
N1 C11 1.454(15) .
N1 C9 1.537(14) .
N1 C13 1.503(14) .
C2 H2 0.9300 .
C2 C1 1.416(12) .
C2 C3 1.373(12) .
N2 Co01 2.245(9) 1_565
N2 C10 1.524(14) .
N2 C12 1.502(16) .
N2 C14 1.456(15) .
C4 C8 1.441(13) .
C4 C3 1.404(13) .
C4 C5 1.438(15) .
C8 O3 1.237(12) .
C10 H10A 0.9700 .
C10 H10B 0.9700 .
C10 C9 1.473(12) .
C12 H12A 0.9700 .
C12 H12B 0.9700 .
C12 C11 1.526(12) .
C14 H14A 0.9700 .
C14 H14B 0.9700 .
C14 C13 1.528(12) .
C11 H11A 0.9700 .
C11 H11B 0.9700 .
C3 H3 0.9300 .
C9 H9A 0.9700 .
C9 H9B 0.9700 .
C13 H13A 0.9700 .
C13 H13B 0.9700 .
C5 H5 0.9300 .
loop_
_geom_torsion_atom_site_label_1
_geom_torsion_atom_site_label_2
_geom_torsion_atom_site_label_3
_geom_torsion_atom_site_label_4
_geom_torsion
_geom_torsion_site_symmetry_1
Co01 O2 C7 O1 -0.4(7) .
Co01 O2 C7 C1 178.9(7) .
Co01 O1 C7 O2 0.4(8) .
Co01 O1 C7 C1 -178.8(6) .
Co01 O4 C8 C4 -169.0(8) 1_556
Co01 O4 C8 O3 9.8(19) 1_556
Co01 N1 C11 C12 175.6(6) .
Co01 N1 C9 C10 178.4(6) .
Co01 N1 C13 C14 180.0(6) .
Co01 N2 C10 C9 176.5(7) 1_565
Co01 N2 C12 C11 178.9(6) 1_565
Co01 N2 C14 C13 178.6(6) 1_565
O2 C7 C1 C6 -173.3(7) .
O2 C7 C1 C2 8.7(12) .
O1 C7 C1 C6 5.9(12) .
O1 C7 C1 C2 -172.0(8) .
N2 C10 C9 N1 7.1(10) .
N2 C12 C11 N1 4.7(10) .
N2 C14 C13 N1 -1.1(10) .
C8 C4 C3 C2 177.9(8) .
C8 C4 C5 C6 -178.7(9) .
C10 N2 C12 C11 54.8(11) .
C10 N2 C14 C13 -56.9(11) .
C1 C6 C5 C4 -0.1(14) .
C1 C2 C3 C4 1.9(13) .
C12 N2 C10 C9 -60.8(11) .
C12 N2 C14 C13 58.2(11) .
C14 N2 C10 C9 53.6(12) .
C14 N2 C12 C11 -61.1(11) .
C11 N1 C9 C10 53.2(11) .
C11 N1 C13 C14 -56.5(11) .
C3 C2 C1 C7 175.8(8) .
C3 C2 C1 C6 -2.2(12) .
C3 C4 C8 O4 -179.0(7) .
C3 C4 C8 O3 2.1(13) .
C3 C4 C5 C6 -0.3(13) .
C9 N1 C11 C12 -58.9(10) .
C9 N1 C13 C14 59.2(10) .
C13 N1 C11 C12 53.6(11) .
C13 N1 C9 C10 -63.0(10) .
C5 C6 C1 C7 -176.8(8) .
C5 C6 C1 C2 1.3(13) .
C5 C4 C8 O4 -0.7(13) .
C5 C4 C8 O3 -179.5(8) .
C5 C4 C3 C2 -0.6(12) .
loop_
_smtbx_masks_void_nr
_smtbx_masks_void_average_x
_smtbx_masks_void_average_y
_smtbx_masks_void_average_z
_smtbx_masks_void_volume
_smtbx_masks_void_count_electrons
1 -0.084 0.476 0.495 139.0 52.5
