#------------------------------------------------------------------------------
#$Date: 2019-11-24 04:12:18 +0200 (Sun, 24 Nov 2019) $
#$Revision: 236652 $
#$URL: file:///home/coder/svn-repositories/cod/cif/8/00/03/8000365.cif $
#------------------------------------------------------------------------------
#
# This file is available in the Crystallography Open Database (COD),
# http://www.crystallography.net/
#
# All data on this site have been placed in the public domain by the
# contributors.
#
data_8000365
loop_
_publ_author_name
'Andrzejewski, Micha\/l'
'Katrusiak, Andrzej'
_publ_section_title
;
 Piezochromic Porous Metal-Organic Framework.
;
_journal_issue                   1
_journal_name_full               'The journal of physical chemistry letters'
_journal_page_first              279
_journal_page_last               284
_journal_paper_doi               10.1021/acs.jpclett.6b02458
_journal_volume                  8
_journal_year                    2017
_chemical_formula_moiety         'C14 H18 Co N2 O5'
_chemical_formula_sum            'C14 H18 Co N2 O5'
_chemical_formula_weight         353.23
_chemical_name_common            AMU1
_chemical_name_systematic
;
Co(1,4-benzenedicarboxylate)(1,4-diazabicyclo[2.2.2]octane)H2O
;
_space_group_crystal_system      triclinic
_space_group_IT_number           1
_space_group_name_Hall           'P 1'
_space_group_name_H-M_alt        'P 1'
_atom_sites_solution_hydrogens   mixed
_atom_sites_solution_primary     direct
_audit_creation_date             2016-07-12
_audit_creation_method
;
Olex2 1.2
(compiled 2016.02.19 svn.r3266 for OlexSys, GUI svn.r5155)
;
_cell_angle_alpha                89.391(7)
_cell_angle_beta                 95.588(8)
_cell_angle_gamma                93.571(7)
_cell_formula_units_Z            1
_cell_length_a                   6.0307(6)
_cell_length_b                   7.0970(6)
_cell_length_c                   10.6526(9)
_cell_measurement_reflns_used    3711
_cell_measurement_temperature    190(2)
_cell_measurement_theta_max      58.236
_cell_measurement_theta_min      5.752
_cell_volume                     452.88(7)
_computing_molecular_graphics    'Olex2 (Dolomanov et al., 2009)'
_computing_publication_material  'Olex2 (Dolomanov et al., 2009)'
_computing_structure_refinement  'ShelXL (Sheldrick, 2015)'
_computing_structure_solution    'ShelXS (Sheldrick, 2008)'
_diffrn_ambient_temperature      190(2)
_diffrn_measured_fraction_theta_full 0.913
_diffrn_measured_fraction_theta_max 0.814
_diffrn_measurement_device_type  'multiwire proportional'
_diffrn_measurement_method       'phi and omega scans'
_diffrn_radiation_monochromator  graphite
_diffrn_radiation_type           MoK\a
_diffrn_radiation_wavelength     0.71073
_diffrn_reflns_av_R_equivalents  0.0760
_diffrn_reflns_av_unetI/netI     0.1681
_diffrn_reflns_Laue_measured_fraction_full 0.913
_diffrn_reflns_Laue_measured_fraction_max 0.814
_diffrn_reflns_limit_h_max       8
_diffrn_reflns_limit_h_min       -7
_diffrn_reflns_limit_k_max       9
_diffrn_reflns_limit_k_min       -9
_diffrn_reflns_limit_l_max       13
_diffrn_reflns_limit_l_min       -13
_diffrn_reflns_number            6312
_diffrn_reflns_point_group_measured_fraction_full 0.913
_diffrn_reflns_point_group_measured_fraction_max 0.814
_diffrn_reflns_theta_full        26.000
_diffrn_reflns_theta_max         29.118
_diffrn_reflns_theta_min         2.876
_exptl_absorpt_coefficient_mu    0.968
_exptl_absorpt_correction_T_max  0.908
_exptl_absorpt_correction_T_min  0.891
_exptl_absorpt_correction_type   multi-scan
_exptl_absorpt_process_details
;
Data were collected and reduced by program CrysAlisPro, 
and SCALE3 ABSPACK was used for absorption correction
;
_exptl_crystal_colour            purple
_exptl_crystal_density_diffrn    1.292
_exptl_crystal_description       plate
_exptl_crystal_F_000             183
_exptl_crystal_size_max          0.3
_exptl_crystal_size_mid          0.1
_exptl_crystal_size_min          0.1
_refine_diff_density_max         0.534
_refine_diff_density_min         -0.514
_refine_diff_density_rms         0.096
_refine_ls_abs_structure_details
;
 Refined as a perfect inversion twin.
;
_refine_ls_abs_structure_Flack   0.5
_refine_ls_extinction_method     none
_refine_ls_goodness_of_fit_ref   0.967
_refine_ls_hydrogen_treatment    constr
_refine_ls_matrix_type           full
_refine_ls_number_parameters     200
_refine_ls_number_reflns         3711
_refine_ls_number_restraints     129
_refine_ls_restrained_S_all      0.956
_refine_ls_R_factor_all          0.0989
_refine_ls_R_factor_gt           0.0700
_refine_ls_shift/su_max          0.000
_refine_ls_shift/su_mean         0.000
_refine_ls_structure_factor_coef Fsqd
_refine_ls_weighting_details
'w=1/[\s^2^(Fo^2^)+(0.0800P)^2^] where P=(Fo^2^+2Fc^2^)/3'
_refine_ls_weighting_scheme      calc
_refine_ls_wR_factor_gt          0.1591
_refine_ls_wR_factor_ref         0.1713
_reflns_Friedel_coverage         1.000
_reflns_Friedel_fraction_full    0.913
_reflns_Friedel_fraction_max     0.814
_reflns_number_gt                2463
_reflns_number_total             3711
_reflns_threshold_expression     'I > 2\s(I)'
_cod_data_source_file            jz6b02458_si_004.cif
_cod_data_source_block           190K_P1
_cod_database_code               8000365
_shelx_space_group_comment
;
The symmetry employed for this shelxl refinement is uniquely defined
by the following loop, which should always be used as a source of
symmetry information in preference to the above space-group names.
They are only intended as comments.
;
_olex2_refinement_description
;
1. Fixed Uiso
 At 1.2 times of:
  All C(H) groups, All C(H,H) groups
 At 1.5 times of:
  All O(H,H) groups
2. Uiso/Uaniso restraints and constraints
Uanis(N2) \\sim Ueq, Uanis(C14) \\sim Ueq, Uanis(N1) \\sim Ueq, Uanis(C9) \\sim
Ueq, Uanis(C13) \\sim Ueq, Uanis(C10) \\sim Ueq, Uanis(C11) \\sim Ueq,
Uanis(C12) \\sim Ueq: with sigma of 0.001 and sigma for terminal atoms of 0.002
Uanis(O1W) \\sim Ueq: with sigma of 0.001 and sigma for terminal atoms of 0.002
Uanis(C6) \\sim Ueq, Uanis(C1) \\sim Ueq, Uanis(C2) \\sim Ueq, Uanis(C4) \\sim
Ueq, Uanis(C3) \\sim Ueq, Uanis(C5) \\sim Ueq, Uanis(O4) \\sim Ueq, Uanis(C8)
\\sim Ueq, Uanis(O3) \\sim Ueq, Uanis(C7) \\sim Ueq, Uanis(O1) \\sim Ueq,
Uanis(O2) \\sim Ueq: with sigma of 0.001 and sigma for terminal atoms of 0.002
3.a Rotating group:
 O1W(H1WA,H1WB)
3.b Secondary CH2 refined with riding coordinates:
 C14(H14A,H14B), C9(H9A,H9B), C13(H13A,H13B), C10(H10A,H10B), C11(H11A,H11B),
 C12(H12A,H12B)
3.c Aromatic/amide H refined with riding coordinates:
 C6(H6), C2(H2), C3(H3), C5(H5)
;
_shelx_hkl_file
;
  -7  -4  -2   14.71   15.51
  -7  -3  -3   13.78   15.04
  -7  -3  -2   33.91   16.07
  -7  -3  -1   25.15   16.51
  -7  -3   0   46.62   17.75
  -7  -3   1    6.08   16.13
  -7  -3   2    0.01   17.24
  -7  -2  -3    6.51   14.76
  -7  -2  -2    8.43   14.86
  -7  -2  -1    0.29   14.39
  -7  -2   0   29.55   15.45
  -7  -2   1    0.66   14.88
  -7  -2   2   18.40   15.59
  -7  -2   3    1.97   15.99
  -7  -2   4    3.31   16.81
  -7  -1  -3    5.56    9.09
  -7  -1  -2   25.11   13.55
  -7  -1  -1    2.78    5.23
  -7  -1   0   43.80   15.97
  -7  -1   1   16.91   13.55
  -7  -1   2   21.37   13.48
  -7  -1   3   13.38   14.84
  -7  -1   4    4.27   11.96
  -7  -1   5   32.12   18.41
  -7   1  -4   20.80   13.35
  -7   1  -3   15.38    8.15
  -7   1  -2   18.20   11.97
  -7   1  -1   15.87   11.55
  -7   1   0   58.57   14.70
  -7   1   1   17.55   12.69
  -7   1   2   28.00   14.48
  -7   1   3    8.01   13.44
  -7   1   4   33.39   13.47
  -7   1   5   27.73   15.85
  -7   2  -5    9.80   15.01
  -7   2  -4   18.29    9.79
  -7   2  -3   16.98    9.67
  -7   2  -2    5.80    9.38
  -7   2  -1    7.45   13.30
  -7   2   0   25.51   14.27
  -7   2   1    9.25   14.22
  -7   2   2   21.03   15.03
  -7   2   3   14.69   14.10
  -7   2   4   14.55   15.46
  -7   2   5    1.10   16.10
  -7   3  -4   30.23   14.67
  -7   3  -3   27.09   13.55
  -7   3  -2    8.30   14.03
  -7   3  -1    8.61   14.09
  -7   3   0   34.71   15.42
  -7   3   1   33.66   14.47
  -7   3   2   42.66   16.33
  -7   3   3   21.68   14.64
  -7   3   4   46.42   16.94
  -7   4  -3   19.34   15.22
  -7   4  -2   14.53   13.87
  -7   4  -1    5.63   14.62
  -7   4   0   19.32   14.99
  -7   4   1   35.05   15.88
  -6  -5  -2    5.58   15.43
  -6  -5  -1    0.35   14.54
  -6  -5   0    1.07   14.47
  -6  -5   1    1.24   15.92
  -6  -5   2   16.78   16.40
  -6  -4  -3   18.66   13.97
  -6  -4  -2   20.24   13.99
  -6  -4  -1   18.61   13.88
  -6  -4   0   74.54   15.69
  -6  -4   1   59.98   15.82
  -6  -4   2   35.81   15.93
  -6  -4   3   17.82   15.11
  -6  -4   4   18.24   15.22
  -6  -4   5   37.32   16.71
  -6  -3  -5   12.59   15.85
  -6  -3  -4   77.43   14.55
  -6  -3  -3   49.12   13.80
  -6  -3  -2   42.74   13.62
  -6  -3  -1   41.09   14.34
  -6  -3   0   58.88   14.55
  -6  -3   1   47.32   15.07
  -6  -3   2   69.48   15.58
  -6  -3   3   51.42   14.96
  -6  -3   4   68.94   16.25
  -6  -3   5   29.38   15.44
  -6  -3   6   34.84   15.90
  -6  -3   7   33.79   17.22
  -6  -2  -6   12.23   16.17
  -6  -2  -5    0.91   15.58
  -6  -2  -4   31.43   13.11
  -6  -2  -3   16.77   12.88
  -6  -2  -2   14.16   11.58
  -6  -2  -1   17.66   12.54
  -6  -2   0   30.43   13.61
  -6  -2   1   24.07   13.07
  -6  -2   2   33.86   13.48
  -6  -2   3   50.80   14.02
  -6  -2   4   35.43   14.62
  -6  -2   5   28.92   14.51
  -6  -2   6   12.04   14.09
  -6  -2   7    4.49   14.96
  -6  -2   8    0.78   17.42
  -6  -2   9    5.30   16.62
  -6  -1  -6   33.16   14.73
  -6  -1  -5   15.29    9.76
  -6  -1  -4   48.90   11.50
  -6  -1  -3   40.21   11.52
  -6  -1  -2   31.33   11.08
  -6  -1  -1   57.19   12.51
  -6  -1   0   80.60   13.59
  -6  -1   1   93.01   14.51
  -6  -1   2   64.14   14.08
  -6  -1   3   70.65   14.52
  -6  -1   4   39.27   12.72
  -6  -1   5   23.61   13.33
  -6  -1   6   21.92   13.96
  -6  -1   7   30.29   13.78
  -6  -1   8   42.21   15.92
  -6  -1   9   22.61   17.70
  -6  -1  10   29.94   16.68
  -6   1  -7   17.57    9.70
  -6   1  -6   37.19   12.87
  -6   1  -5   37.29   15.09
  -6   1  -4   48.09    8.30
  -6   1  -3   49.51   10.44
  -6   1  -2   43.67   11.86
  -6   1  -1   64.61   13.31
  -6   1   0   65.64   11.45
  -6   1   1   74.86   13.14
  -6   1   2   59.79   11.77
  -6   1   3   91.54   15.38
  -6   1   4   37.66   12.67
  -6   1   5   30.94   12.27
  -6   1   6   23.25   12.13
  -6   1   7   23.07   12.90
  -6   1   8   15.54    9.60
  -6   1   9   16.43   12.11
  -6   2  -7    9.64   14.92
  -6   2  -6    9.24   13.94
  -6   2  -5    9.55    8.49
  -6   2  -4   22.77    9.01
  -6   2  -3   31.41    8.38
  -6   2  -2   52.90   12.83
  -6   2  -1   53.56   13.29
  -6   2   0   27.93   13.31
  -6   2   1   40.13   12.89
  -6   2   2   36.51   14.10
  -6   2   3   87.06   14.90
  -6   2   4   22.41   13.73
  -6   2   5   32.62   13.98
  -6   2   6   31.28   14.56
  -6   2   7   35.38   15.41
  -6   2   8   20.18   15.18
  -6   2   9   15.52   15.69
  -6   2  10    5.90   14.73
  -6   3  -7   17.57   15.40
  -6   3  -6   36.30   14.98
  -6   3  -5   36.08    9.60
  -6   3  -4   52.79    9.13
  -6   3  -3   69.19   13.80
  -6   3  -2   85.17    9.69
  -6   3  -1   52.85   14.60
  -6   3   0   21.19   13.02
  -6   3   1   30.40   13.15
  -6   3   2   79.00   14.00
  -6   3   3  125.16   17.71
  -6   3   4   40.13   14.13
  -6   3   5   33.64   15.60
  -6   3   6   28.09   14.89
  -6   3   7   34.86   16.11
  -6   3   8   21.52   15.49
  -6   3   9   33.41   16.46
  -6   4  -5   14.82   12.83
  -6   4  -4   14.95   14.28
  -6   4  -3   31.85   14.10
  -6   4  -2   66.64   15.60
  -6   4  -1   29.53   14.34
  -6   4   0   48.80   14.91
  -6   4   1   50.00   14.71
  -6   4   2   58.87   15.80
  -6   4   3   51.97   15.16
  -6   4   4   12.34   14.70
  -6   4   5   22.57   15.52
  -6   4   6   41.51   16.01
  -6   4   7   34.32   16.43
  -6   4   8   11.36   15.86
  -6   5  -6    0.40   15.31
  -6   5  -5    1.35   14.11
  -6   5  -4    3.10   14.59
  -6   5  -3   18.26   14.13
  -6   5  -2   27.14   14.71
  -6   5  -1    8.13   13.73
  -6   5   0    7.71   13.88
  -6   5   1    4.27   13.75
  -6   5   2   22.88   14.75
  -6   5   3   35.11   16.67
  -6   5   4   11.47   15.31
  -6   5   5    1.38   15.51
  -6   5   6   13.19   15.76
  -5  -7  -2   14.60   16.53
  -5  -7  -1    7.67   16.16
  -5  -6  -3   27.58   15.03
  -5  -6  -2   49.54   14.97
  -5  -6  -1   29.57   15.43
  -5  -6   0   36.46   15.88
  -5  -6   1   30.59   15.22
  -5  -6   2   32.42   16.55
  -5  -6   3   31.94   16.04
  -5  -6   4    8.29   16.20
  -5  -5  -6    0.40   15.07
  -5  -5  -5    4.12   13.78
  -5  -5  -3   26.04   12.50
  -5  -5  -2   54.81   14.27
  -5  -5  -1    1.83   13.49
  -5  -5   0    4.84   12.95
  -5  -5   1    1.78   14.25
  -5  -5   2    2.25   14.96
  -5  -5   3   55.88   16.61
  -5  -5   4   11.01   14.72
  -5  -5   5   18.82   15.69
  -5  -5   6   26.16   16.71
  -5  -5   7   32.84   17.72
  -5  -4  -7   21.58   15.02
  -5  -4  -6   12.40   14.32
  -5  -4  -4   12.12   10.72
  -5  -4  -3    8.95   10.77
  -5  -4  -2   69.83   13.99
  -5  -4  -1   31.38   12.10
  -5  -4   0   22.27   12.15
  -5  -4   1   31.21   13.11
  -5  -4   2   52.24   14.51
  -5  -4   3   91.34   16.01
  -5  -4   4   17.18   13.72
  -5  -4   5   15.54   13.70
  -5  -4   6    2.55   14.06
  -5  -4   7   31.26   16.12
  -5  -4   8    1.06   16.18
  -5  -4   9   32.15   17.10
  -5  -3  -7   34.02   15.31
  -5  -3  -6   23.75   13.87
  -5  -3  -5   22.52   13.14
  -5  -3  -4   44.77   11.15
  -5  -3  -3   78.89   12.88
  -5  -3  -2  189.67   15.45
  -5  -3  -1   47.43   13.04
  -5  -3   0   39.68   12.16
  -5  -3   1   26.22   13.39
  -5  -3   2   67.09   14.11
  -5  -3   3  133.77   16.60
  -5  -3   4   40.19   12.71
  -5  -3   5   76.31   16.01
  -5  -3   6   72.67   15.46
  -5  -3   7  103.72   16.37
  -5  -3   8   18.93   14.26
  -5  -3   9   45.95   16.93
  -5  -3  10   22.28   15.59
  -5  -2  -8    5.53   13.85
  -5  -2  -7   24.85   14.23
  -5  -2  -6   14.83   13.24
  -5  -2  -5    5.68    7.25
  -5  -2  -4   28.03   10.98
  -5  -2  -3   37.92   11.27
  -5  -2  -2  165.96   15.40
  -5  -2  -1   14.12   11.27
  -5  -2   0    2.79   10.21
  -5  -2   1    4.75   10.69
  -5  -2   2   63.00   13.43
  -5  -2   3   94.05   13.89
  -5  -2   4   24.42   13.28
  -5  -2   5   39.94   12.73
  -5  -2   6   45.89   13.86
  -5  -2   7   37.63   13.60
  -5  -2   8   12.25   12.63
  -5  -2   9   27.74   13.40
  -5  -2  10   18.71   13.82
  -5  -2  11   47.24   15.79
  -5  -1  -8   27.98   12.71
  -5  -1  -7   40.23   14.44
  -5  -1  -6   16.62   11.90
  -5  -1  -5    5.15    4.94
  -5  -1  -4    1.63    5.21
  -5  -1  -3   16.88    9.90
  -5  -1  -2  150.13   14.05
  -5  -1  -1   34.12   10.16
  -5  -1   0   34.24    9.97
  -5  -1   1   27.28   10.19
  -5  -1   2   69.99   12.31
  -5  -1   3   70.63   13.91
  -5  -1   4    3.73   11.11
  -5  -1   5   16.17   13.80
  -5  -1   6   24.45   11.64
  -5  -1   7   39.61   12.69
  -5  -1   8   18.38   12.00
  -5  -1   9   25.04   12.40
  -5  -1  10   30.98   13.72
  -5  -1  11   66.90   15.37
  -5   1  -9   15.67   10.48
  -5   1  -8   24.62   11.40
  -5   1  -7   26.58   13.10
  -5   1  -6   20.90   12.62
  -5   1  -5   14.78    6.28
  -5   1  -4    5.97    6.82
  -5   1  -3   18.09    9.30
  -5   1  -2  176.47   13.93
  -5   1  -1   18.59    8.24
  -5   1   0   22.46    8.95
  -5   1   1   47.15   11.45
  -5   1   2   72.80   12.20
  -5   1   3   66.26   11.99
  -5   1   4    2.35   10.46
  -5   1   5   23.13   10.54
  -5   1   6   56.45   12.91
  -5   1   7   22.29    9.14
  -5   1   8   30.30    8.19
  -5   1   9   43.32   18.99
  -5   1  10   34.12   12.55
  -5   2  -9   13.02   14.75
  -5   2  -8    0.05   14.03
  -5   2  -7   33.51   14.04
  -5   2  -6    9.26    7.66
  -5   2  -5    9.50    7.01
  -5   2  -4   22.66    8.48
  -5   2  -3   42.09    7.83
  -5   2  -2  181.14   15.06
  -5   2  -1    0.08    9.95
  -5   2   0   13.72   10.42
  -5   2   1   18.89   10.82
  -5   2   2   44.83   11.98
  -5   2   3   50.48   12.30
  -5   2   4   10.22   11.30
  -5   2   5   52.74   13.51
  -5   2   6  128.87   15.23
  -5   2   7   20.87   12.50
  -5   2   8   41.20   13.22
  -5   2   9   20.03   13.05
  -5   2  10   13.31   12.67
  -5   2  11   27.76   14.32
  -5   3  -9   28.39   15.83
  -5   3  -8   23.14   15.02
  -5   3  -7   33.35   13.83
  -5   3  -6    8.33    7.91
  -5   3  -5   17.11    8.35
  -5   3  -4   64.34    8.71
  -5   3  -3  102.50    9.65
  -5   3  -2  223.74   15.56
  -5   3  -1    7.33   10.57
  -5   3   0   37.47   11.90
  -5   3   1   43.29   12.34
  -5   3   2   54.75   12.80
  -5   3   3   85.98   13.95
  -5   3   4   27.19   13.06
  -5   3   5   60.80   13.65
  -5   3   6  180.05   17.82
  -5   3   7   35.51   13.48
  -5   3   8   49.60   14.05
  -5   3   9   38.03   14.73
  -5   3  10   26.29   13.73
  -5   4  -9   23.94   15.57
  -5   4  -8   26.00   14.92
  -5   4  -7   36.94   13.66
  -5   4  -6    0.76    8.16
  -5   4  -5    5.25    7.60
  -5   4  -4    5.05    7.68
  -5   4  -3    9.32    7.06
  -5   4  -2   77.56    8.03
  -5   4  -1    0.26    5.76
  -5   4   0   37.61   11.81
  -5   4   1   46.37   12.51
  -5   4   2   26.00   12.45
  -5   4   3    9.08   12.20
  -5   4   4    3.19   11.88
  -5   4   5    1.18   13.05
  -5   4   6   63.67   14.44
  -5   4   7   19.49   13.46
  -5   4   8   22.79   13.83
  -5   4   9   28.60   14.32
  -5   4  10   29.21   15.13
  -5   5  -7   18.23   14.25
  -5   5  -6    6.90   11.98
  -5   5  -5    5.45   13.75
  -5   5  -4   27.96   13.66
  -5   5  -3   59.98   14.98
  -5   5  -2   80.19   15.55
  -5   5  -1    1.11   12.56
  -5   5   0    3.10   12.40
  -5   5   1   12.32   12.13
  -5   5   2   15.27   13.48
  -5   5   3   16.62   13.50
  -5   5   4   26.87   14.63
  -5   5   5   39.38   13.74
  -5   5   6  109.02   18.01
  -5   5   7   16.87   14.57
  -5   5   8   17.89   13.88
  -5   5   9    4.54   14.49
  -5   6  -7   40.15   14.62
  -5   6  -6    6.94   15.18
  -5   6  -5    2.76   14.10
  -5   6  -4    5.99   14.35
  -5   6  -3    1.36   14.79
  -5   6  -2   42.81   15.49
  -5   6  -1    2.28   13.48
  -5   6   0   34.42   14.54
  -5   6   1   41.18   15.56
  -5   6   2    1.95   14.59
  -5   6   3   16.23   15.28
  -5   6   4   18.07   15.51
  -5   6   5    4.91   16.03
  -5   6   6   31.28   16.21
  -5   6   7   17.01   16.22
  -5   6   8   20.83   15.41
  -5   7   1   21.82   16.81
  -4  -7  -5    6.59    9.44
  -4  -7  -3   24.24   14.08
  -4  -7  -2   67.37   15.43
  -4  -7  -1    9.68   15.12
  -4  -7   0   13.07   14.98
  -4  -7   1   12.90   14.83
  -4  -7   2   14.29   15.26
  -4  -7   3   30.33   16.51
  -4  -6  -7   27.14   16.04
  -4  -6  -6    6.27   14.68
  -4  -6  -5   14.43   13.10
  -4  -6  -4    1.19   10.88
  -4  -6  -3   13.26    8.04
  -4  -6  -2   62.90   13.51
  -4  -6  -1    1.39   12.45
  -4  -6   0   22.77   13.74
  -4  -6   1   31.32   14.26
  -4  -6   2   53.99   16.47
  -4  -6   3   19.08   14.23
  -4  -6   4    1.95   14.64
  -4  -6   5   18.19   15.83
  -4  -6   6   30.93   16.20
  -4  -6   7   33.34   17.79
  -4  -5  -8   10.34   15.43
  -4  -5  -7    9.97   14.84
  -4  -5  -6    1.44   12.76
  -4  -5  -5   13.22   12.55
  -4  -5  -4   39.42   11.37
  -4  -5  -3   55.71   12.17
  -4  -5  -2  102.71   14.43
  -4  -5  -1    6.24    6.31
  -4  -5   0    1.64   11.57
  -4  -5   1    4.23   11.63
  -4  -5   2    6.25   12.59
  -4  -5   3   26.00   13.10
  -4  -5   4    9.84   13.46
  -4  -5   5   25.71   13.25
  -4  -5   6   59.44   16.15
  -4  -5   7   17.05   14.41
  -4  -5   8    1.61   14.51
  -4  -5   9    0.66   15.33
  -4  -4  -9   21.97   14.82
  -4  -4  -8   40.59   15.92
  -4  -4  -7   40.50   15.07
  -4  -4  -6    2.65   11.94
  -4  -4  -5    3.71    6.88
  -4  -4  -4    4.46    8.75
  -4  -4  -3   15.67   10.29
  -4  -4  -2   83.06   12.02
  -4  -4  -1    3.53   10.46
  -4  -4   0   37.45   11.96
  -4  -4   1   47.89    6.21
  -4  -4   2   46.59   12.09
  -4  -4   3   12.19   11.78
  -4  -4   4    3.57   11.95
  -4  -4   5    2.51   12.02
  -4  -4   6   26.88   13.07
  -4  -4   7   18.21   13.25
  -4  -4   8   24.51   14.28
  -4  -4   9   24.72   15.36
  -4  -4  10   19.74   15.79
  -4  -4  11    4.67   15.73
  -4  -3  -9   50.43   17.21
  -4  -3  -8   62.66   15.67
  -4  -3  -7   92.41   15.32
  -4  -3  -6   43.30   13.06
  -4  -3  -5   36.64    9.39
  -4  -3  -4  119.64   12.14
  -4  -3  -3  118.71   11.60
  -4  -3  -2  234.42   15.38
  -4  -3  -1    2.42    9.30
  -4  -3   0   82.46   12.40
  -4  -3   1   97.02   12.54
  -4  -3   2   80.19    4.07
  -4  -3   3   69.32   12.17
  -4  -3   4   50.24   13.10
  -4  -3   5   78.38   13.11
  -4  -3   6  138.05   16.49
  -4  -3   7   72.74   14.01
  -4  -3   8   44.40   13.85
  -4  -3   9   46.01   13.68
  -4  -3  10   21.20   13.31
  -4  -3  11   21.08   14.76
  -4  -2 -10    6.39   15.53
  -4  -2  -9   23.81   14.87
  -4  -2  -8   34.68   13.85
  -4  -2  -7   71.39   14.53
  -4  -2  -6    5.02   11.54
  -4  -2  -5   10.97    6.30
  -4  -2  -4   70.94    9.12
  -4  -2  -3   71.48   10.74
  -4  -2  -2  169.44    6.62
  -4  -2  -1    0.97    2.70
  -4  -2   0   44.24    9.69
  -4  -2   1   47.67   10.88
  -4  -2   2    7.00    9.34
  -4  -2   3   16.05   10.54
  -4  -2   4   13.11   10.32
  -4  -2   5   41.59   12.42
  -4  -2   6  106.40   13.56
  -4  -2   7   78.12   13.75
  -4  -2   8   27.60   10.22
  -4  -2   9   28.58    8.04
  -4  -2  10    7.10    7.72
  -4  -2  11   12.25    8.32
  -4  -1 -10   14.02   13.72
  -4  -1  -9   72.35   13.85
  -4  -1  -8   72.54   13.82
  -4  -1  -7   95.26   13.57
  -4  -1  -6    7.70   11.08
  -4  -1  -5    7.62    5.59
  -4  -1  -4   23.78    8.36
  -4  -1  -3   37.52    7.55
  -4  -1  -2  132.37   10.93
  -4  -1  -1    1.40    3.59
  -4  -1   0   88.17    5.43
  -4  -1   1   83.37   10.17
  -4  -1   2   42.17    9.42
  -4  -1   3   14.10    1.87
  -4  -1   4    0.12    8.82
  -4  -1   5   39.56   11.89
  -4  -1   6   50.77   11.67
  -4  -1   7  108.23   13.22
  -4  -1   8   55.02   11.17
  -4  -1   9   47.23   14.20
  -4  -1  10   17.68    8.24
  -4  -1  11   12.58   10.19
  -4  -1  12  102.94   60.68
  -4  -1  13    2.16   11.25
  -4   1 -10    8.23    9.11
  -4   1  -9   44.32   12.20
  -4   1  -8   52.35   12.02
  -4   1  -7  114.03   13.41
  -4   1  -6    1.12    5.75
  -4   1  -5    9.09    7.27
  -4   1  -4   23.38    6.08
  -4   1  -3   52.41    7.77
  -4   1  -2   94.98    9.73
  -4   1  -1   21.79    4.72
  -4   1   0   86.75    5.21
  -4   1   1   89.71   10.30
  -4   1   2   79.93   10.63
  -4   1   3   45.32    9.75
  -4   1   4    3.84    9.25
  -4   1   5   14.25   10.20
  -4   1   6   61.48   11.09
  -4   1   7  117.28    8.84
  -4   1   8   45.09    8.82
  -4   1   9   59.26   15.12
  -4   1  10   10.45   11.54
  -4   1  11    2.75   13.58
  -4   1  12    0.77   23.49
  -4   2 -10   11.45   14.75
  -4   2  -9   74.54   16.21
  -4   2  -8   44.08   14.96
  -4   2  -7   72.60   14.46
  -4   2  -6    3.74    6.55
  -4   2  -5   25.70    7.30
  -4   2  -4   59.44    6.97
  -4   2  -3  103.55    8.40
  -4   2  -2   96.01   12.71
  -4   2  -1   26.46   10.08
  -4   2   0   57.33    4.82
  -4   2   1   65.79   11.31
  -4   2   2   38.53    2.73
  -4   2   3   35.26    5.53
  -4   2   4   34.39    4.79
  -4   2   5   31.01    6.52
  -4   2   6   74.74    7.36
  -4   2   7  124.57   10.89
  -4   2   8   29.96   10.52
  -4   2   9    9.02    8.10
  -4   2  10    0.85   17.05
  -4   2  11    0.73   17.10
  -4   3 -10   22.60   15.12
  -4   3  -9   88.48   16.96
  -4   3  -8   69.99   15.14
  -4   3  -7  102.66   10.59
  -4   3  -6   32.30    7.88
  -4   3  -5   80.10    7.95
  -4   3  -4  108.08    9.27
  -4   3  -3  161.57    8.74
  -4   3  -2  166.89    9.50
  -4   3  -1  104.80    6.72
  -4   3   0  119.11   13.85
  -4   3   1  129.97   12.71
  -4   3   2  112.43    7.83
  -4   3   3   97.57   12.44
  -4   3   4   75.11    5.95
  -4   3   5   63.05    5.69
  -4   3   6  118.70   14.95
  -4   3   7  180.72    9.50
  -4   3   8   55.29    8.44
  -4   3   9   37.37   11.76
  -4   3  10   10.12   11.66
  -4   4 -10   13.65   15.68
  -4   4  -9   61.68   14.89
  -4   4  -8   56.58   14.47
  -4   4  -7   57.25    9.38
  -4   4  -6    9.88    7.67
  -4   4  -5   14.39    7.38
  -4   4  -4    3.59    6.45
  -4   4  -3   34.36    7.19
  -4   4  -2   44.91    6.20
  -4   4  -1   43.59    6.46
  -4   4   0   47.82    5.71
  -4   4   1   66.25   12.82
  -4   4   2   88.68   13.48
  -4   4   3   33.24   11.10
  -4   4   4    3.06   10.89
  -4   4   5    4.56   11.66
  -4   4   6   15.98   11.73
  -4   4   7   92.40   14.82
  -4   4   8   24.67   11.82
  -4   4   9   18.88   11.73
  -4   5  -7   36.54   12.79
  -4   5  -6    9.44   12.31
  -4   5  -5   27.37   12.27
  -4   5  -4   46.03   13.93
  -4   5  -3   94.99   14.16
  -4   5  -2   48.23   13.30
  -4   5  -1   42.65   12.01
  -4   5   0   30.71   12.74
  -4   5   1   34.48   12.70
  -4   5   2   34.45   12.36
  -4   5   3   30.72   12.82
  -4   5   4   35.86   13.40
  -4   5   5   24.00   12.64
  -4   5   6   41.34   13.23
  -4   5   7   75.51   14.06
  -4   5   8    9.75   12.83
  -4   5   9    1.16   12.80
  -4   6  -8   51.16   15.96
  -4   6  -7   45.45   14.86
  -4   6  -6    8.66   13.69
  -4   6  -5   11.09   13.93
  -4   6  -4    6.36   13.22
  -4   6  -3   52.36   14.77
  -4   6  -2   38.60   13.81
  -4   6  -1   55.44   15.74
  -4   6   0   43.08   13.80
  -4   6   1   70.71   14.98
  -4   6   2   71.63   14.76
  -4   6   3   36.90   14.35
  -4   6   4   14.40   13.67
  -4   6   5   12.79   13.11
  -4   6   6   17.60   12.69
  -4   6   7   68.27   16.19
  -4   6   8   29.57   13.42
  -4   7  -5   11.42   15.31
  -4   7  -4    9.58   15.31
  -4   7  -3   44.46   16.00
  -4   7  -2   16.19   15.42
  -4   7  -1   46.54   14.78
  -4   7   0   16.01   15.03
  -4   7   1   30.75   15.61
  -4   7   2   50.11   16.20
  -4   7   3   20.20   15.52
  -4   7   4   14.28   14.88
  -4   7   5   17.22   15.09
  -4   7   6   17.53   15.37
  -4   7   7   40.79   16.14
  -4   7   8   14.57   15.19
  -3  -8  -3   10.31   15.05
  -3  -8  -2   26.03   15.12
  -3  -8  -1    1.70   16.00
  -3  -8   0    8.88   16.30
  -3  -8   1    5.93   15.97
  -3  -8   2    4.05   15.60
  -3  -7  -6    8.74   12.75
  -3  -7  -5    8.21   11.87
  -3  -7  -4   21.77    8.46
  -3  -7  -3   30.27    8.88
  -3  -7  -2   52.10    8.92
  -3  -7  -1    9.64    7.88
  -3  -7   0   56.14   15.53
  -3  -7   1   41.81   14.92
  -3  -7   2   28.85   15.84
  -3  -7   3   11.38   14.02
  -3  -7   4   19.33   15.84
  -3  -7   5    3.26   15.67
  -3  -7   6   33.48   17.07
  -3  -6  -9   41.31   15.81
  -3  -6  -8   29.74   15.00
  -3  -6  -7   37.21   14.40
  -3  -6  -6   12.28   12.14
  -3  -6  -5   19.17    8.98
  -3  -6  -4   34.54    7.26
  -3  -6  -3   47.86    8.70
  -3  -6  -2   58.83    7.87
  -3  -6  -1   40.46    8.10
  -3  -6   0   72.98    8.06
  -3  -6   1   95.21   15.46
  -3  -6   2   84.56   15.72
  -3  -6   3   14.86   13.65
  -3  -6   4   25.72   13.54
  -3  -6   5   11.93   14.46
  -3  -6   6   23.27   14.20
  -3  -6   7   90.83   17.72
  -3  -6   8   14.24   15.01
  -3  -6   9   34.29   17.12
  -3  -5 -10    5.46   14.44
  -3  -5  -9   18.99   14.68
  -3  -5  -8   16.97   13.67
  -3  -5  -7   43.12   13.65
  -3  -5  -6    7.63   11.60
  -3  -5  -5   39.18    7.10
  -3  -5  -4   66.48   10.96
  -3  -5  -3   45.66   10.13
  -3  -5  -2   47.26    7.36
  -3  -5  -1    9.60    5.80
  -3  -5   0   73.30    7.18
  -3  -5   1   53.47    6.53
  -3  -5   2   31.84    5.68
  -3  -5   3   20.46   12.05
  -3  -5   4   25.33   12.93
  -3  -5   5   13.76   11.97
  -3  -5   6   21.22   13.68
  -3  -5   7   67.28   15.49
  -3  -5   8    8.62   13.01
  -3  -5   9    3.11   14.26
  -3  -5  10    1.79   13.99
  -3  -5  11    1.24   15.31
  -3  -4 -10   21.20   14.36
  -3  -4  -9   56.99   16.69
  -3  -4  -8   36.17   13.87
  -3  -4  -7   60.80   13.90
  -3  -4  -6   23.80   11.99
  -3  -4  -5   36.48    7.12
  -3  -4  -4   42.32    8.72
  -3  -4  -3   59.88    9.77
  -3  -4  -2   52.26    5.89
  -3  -4  -1   75.05   11.80
  -3  -4   0  107.46    7.53
  -3  -4   1  130.02    6.73
  -3  -4   2  170.85   15.00
  -3  -4   3   70.35   12.90
  -3  -4   4   32.39   11.43
  -3  -4   5   12.14   11.33
  -3  -4   6   24.08   11.28
  -3  -4   7  162.54   16.92
  -3  -4   8   53.46   13.41
  -3  -4   9   58.11   13.54
  -3  -4  10   17.62   13.50
  -3  -4  11    1.03   13.97
  -3  -3 -11   18.96   15.91
  -3  -3 -10   24.72   14.97
  -3  -3  -9  103.92   16.34
  -3  -3  -8   59.54   14.06
  -3  -3  -7  110.93   14.18
  -3  -3  -6   80.13    7.14
  -3  -3  -5  136.18   10.99
  -3  -3  -4  158.07   10.72
  -3  -3  -3  130.31    6.17
  -3  -3  -2  131.84   16.48
  -3  -3  -1  126.32   10.45
  -3  -3   0  197.54   14.40
  -3  -3   1  190.15   12.97
  -3  -3   2  277.46   11.77
  -3  -3   3  164.34   13.64
  -3  -3   4  105.84   11.35
  -3  -3   5   74.94    5.63
  -3  -3   6   45.27    5.94
  -3  -3   7  289.01   10.41
  -3  -3   8   52.25    7.79
  -3  -3   9   58.56    9.35
  -3  -3  10   26.95    8.02
  -3  -3  11   12.49    8.18
  -3  -2 -11   16.98   15.10
  -3  -2 -10   26.29   14.08
  -3  -2  -9   63.97   15.47
  -3  -2  -8   24.47   12.03
  -3  -2  -7   57.76   13.41
  -3  -2  -6   42.67    3.54
  -3  -2  -5   82.94    6.52
  -3  -2  -4  115.20    9.17
  -3  -2  -3  101.28    5.73
  -3  -2  -2   81.60    4.48
  -3  -2  -1   69.76    8.62
  -3  -2   0   89.10    9.44
  -3  -2   1   77.37   10.70
  -3  -2   2  240.35   14.20
  -3  -2   3   96.58   10.88
  -3  -2   4   26.06    9.35
  -3  -2   5   28.28    4.88
  -3  -2   6   14.05    5.26
  -3  -2   7  243.29   14.71
  -3  -2   8   28.33    6.49
  -3  -2   9   29.56    8.86
  -3  -2  10    9.43    7.18
  -3  -2  11    0.67    7.72
  -3  -2  12  132.17   96.70
  -3  -2  13    1.03   12.77
  -3  -1 -11   32.90   15.49
  -3  -1 -10   18.76    8.91
  -3  -1  -9   65.39   11.76
  -3  -1  -8   90.18   13.78
  -3  -1  -7   76.79   11.98
  -3  -1  -6   54.34    3.72
  -3  -1  -5   62.39    5.77
  -3  -1  -4   81.54    6.45
  -3  -1  -3  108.58   11.19
  -3  -1  -2  103.21   22.66
  -3  -1  -1  105.41    4.46
  -3  -1   0  167.13    5.52
  -3  -1   1  231.14   12.34
  -3  -1   2  630.82   19.00
  -3  -1   3  138.61   11.31
  -3  -1   4   46.98    9.17
  -3  -1   5   22.01    4.74
  -3  -1   6   14.25    4.87
  -3  -1   7  297.92   10.27
  -3  -1   8   52.41    7.08
  -3  -1   9   71.94    9.52
  -3  -1  10   69.97    7.62
  -3  -1  11   30.78    9.89
  -3  -1  12   41.57    9.33
  -3  -1  13    9.74   13.15
  -3   1 -11   20.52   14.14
  -3   1 -10   24.71    8.33
  -3   1  -9   65.53   12.87
  -3   1  -8   97.35   13.76
  -3   1  -7   57.87   22.26
  -3   1  -6   53.51    5.20
  -3   1  -5   67.91    6.58
  -3   1  -4  180.45    7.25
  -3   1  -3  135.75   11.08
  -3   1  -2  155.85    7.11
  -3   1  -1   93.41    5.09
  -3   1   0  232.40   11.93
  -3   1   1  276.94    8.34
  -3   1   2  741.93   19.15
  -3   1   3  149.39    6.65
  -3   1   4   39.34    7.14
  -3   1   5   29.30    8.68
  -3   1   6   13.69    5.14
  -3   1   7  238.56   24.20
  -3   1   8   75.74    7.45
  -3   1   9   74.58    7.22
  -3   1  10   93.02    9.71
  -3   1  11   50.64    9.04
  -3   1  12   26.42   17.70
  -3   1  13    0.39   19.14
  -3   2 -11   22.40   15.29
  -3   2 -10   17.11   13.77
  -3   2  -9   12.97   12.57
  -3   2  -8   69.99   13.22
  -3   2  -7   49.36    7.15
  -3   2  -6   41.46    8.45
  -3   2  -5   68.36    6.27
  -3   2  -4  206.41    9.59
  -3   2  -3   73.37    6.11
  -3   2  -2   77.56    6.09
  -3   2  -1   62.94    6.05
  -3   2   0   81.98    6.15
  -3   2   1  108.53   13.27
  -3   2   2  375.12   13.47
  -3   2   3   72.70    4.24
  -3   2   4   38.27    8.06
  -3   2   5   43.75    5.53
  -3   2   6   23.31    5.96
  -3   2   7  154.40    9.28
  -3   2   8   22.37    6.00
  -3   2   9   29.82    7.95
  -3   2  10   31.72    6.61
  -3   2  11   25.67    9.11
  -3   2  12   13.97    9.42
  -3   2  13    8.45   14.94
  -3   3 -11   28.41   16.01
  -3   3 -10   28.69   14.98
  -3   3  -9   44.92   14.89
  -3   3  -8   92.68    9.33
  -3   3  -7   66.70    8.19
  -3   3  -6   76.57    7.83
  -3   3  -5  140.92    9.24
  -3   3  -4  313.67   10.41
  -3   3  -3  151.29   13.12
  -3   3  -2  170.73    8.58
  -3   3  -1   97.95    4.38
  -3   3   0  222.28    7.93
  -3   3   1  190.93    6.14
  -3   3   2  453.01   42.36
  -3   3   3  149.21    6.99
  -3   3   4  105.31    4.57
  -3   3   5  107.64    6.93
  -3   3   6   90.05    7.17
  -3   3   7  206.06    9.75
  -3   3   8   72.17    7.81
  -3   3   9   54.08    8.21
  -3   3  10   84.10   14.29
  -3   3  11   31.64   14.05
  -3   3  12   29.71   12.28
  -3   3  13   24.40   17.17
  -3   4 -11   22.66   15.91
  -3   4 -10   23.48   15.31
  -3   4  -9   76.74   14.98
  -3   4  -8   28.13    8.13
  -3   4  -7   34.76    8.04
  -3   4  -6   44.64    9.84
  -3   4  -5   63.66    7.51
  -3   4  -4  141.70    8.66
  -3   4  -3   49.36   10.76
  -3   4  -2   86.15    6.35
  -3   4  -1   46.53    3.63
  -3   4   0  151.55    4.37
  -3   4   1  123.70    8.09
  -3   4   2  253.93   69.08
  -3   4   3   89.78    4.38
  -3   4   4   72.19   11.58
  -3   4   5   27.73   10.78
  -3   4   6   47.52   10.55
  -3   4   7  100.23   13.36
  -3   4   8   64.33    8.87
  -3   4   9   44.78    7.83
  -3   4  10   85.81   15.35
  -3   4  11   52.37   16.03
  -3   5 -10   11.76   13.74
  -3   5  -9   19.19   14.10
  -3   5  -8   54.07    9.47
  -3   5  -7   24.35    9.16
  -3   5  -6   13.90    6.99
  -3   5  -5   34.83    7.64
  -3   5  -4   92.10    9.97
  -3   5  -3    5.29    5.35
  -3   5  -2   11.18    4.87
  -3   5  -1    2.72   10.23
  -3   5   0   42.11   12.21
  -3   5   1   29.88   11.52
  -3   5   2   87.92   13.51
  -3   5   3   33.85   11.35
  -3   5   4   43.53   11.83
  -3   5   5   23.79   10.88
  -3   5   6   32.33   11.31
  -3   5   7   27.51   11.17
  -3   5   8   17.35   11.19
  -3   6  -8   40.02   13.87
  -3   6  -7   35.41   13.84
  -3   6  -6   33.30   14.07
  -3   6  -5   59.46   14.38
  -3   6  -4  122.58   16.06
  -3   6  -3   41.78   13.74
  -3   6  -2   63.99   14.41
  -3   6  -1   54.00   13.79
  -3   6   0   73.05   14.74
  -3   6   1   95.70   14.36
  -3   6   2  140.56   16.32
  -3   6   3   99.24   14.68
  -3   6   4   89.97   14.36
  -3   6   5   16.82   12.12
  -3   6   6   46.98   13.00
  -3   6   7   58.73   13.80
  -3   6   8   56.18   14.20
  -3   7  -8   20.22   15.37
  -3   7  -7   23.03   14.70
  -3   7  -6   13.17   15.68
  -3   7  -5   11.38   14.47
  -3   7  -4   67.71   16.22
  -3   7  -3   27.68   14.34
  -3   7  -2   22.24   13.92
  -3   7  -1   31.74   13.95
  -3   7   0   17.60   13.34
  -3   7   1   52.18   15.72
  -3   7   2   62.22   15.85
  -3   7   3   33.36   14.54
  -3   7   4   51.88   15.08
  -3   7   5    5.42   13.43
  -3   7   6   19.27   14.91
  -3   7   7   24.05   13.63
  -3   8  -3    0.84   15.75
  -3   8  -2    1.77   14.13
  -3   8  -1    9.55   16.19
  -3   8   0   12.65   16.49
  -3   8   1    0.75   15.94
  -3   8   2   16.96   15.74
  -3   8   3    6.69   16.32
  -3   8   4    5.70   15.25
  -3   8   5    9.18   14.35
  -3   8   6   10.36   16.43
  -2  -9  -3   21.94   16.07
  -2  -8  -5    5.54   11.31
  -2  -8  -4   10.44   11.81
  -2  -8  -3    0.87    8.39
  -2  -8  -2    1.22    8.24
  -2  -8  -1    3.40    8.79
  -2  -8   0    6.74   14.25
  -2  -8   1    9.51   14.92
  -2  -8   2   26.60   16.07
  -2  -8   3   11.19   16.66
  -2  -8   4    1.37   15.91
  -2  -7  -7    7.83   12.31
  -2  -7  -6   24.59   10.10
  -2  -7  -5   37.78   12.02
  -2  -7  -4   53.28    8.78
  -2  -7  -3   11.75    7.85
  -2  -7  -2    9.26    7.36
  -2  -7  -1   32.40    7.97
  -2  -7   0   32.77    8.13
  -2  -7   1   31.07    8.47
  -2  -7   2  111.76   16.62
  -2  -7   3   46.45   15.68
  -2  -7   4   27.80   15.10
  -2  -7   5   28.15   15.19
  -2  -7   6    0.02   15.95
  -2  -7   7   64.97   18.62
  -2  -6  -8   15.91   11.88
  -2  -6  -7    8.63    8.51
  -2  -6  -6   42.96    8.63
  -2  -6  -5   66.15    6.10
  -2  -6  -4  101.08    8.72
  -2  -6  -3   39.48    7.70
  -2  -6  -2   36.59    7.29
  -2  -6  -1   53.13    7.59
  -2  -6   0   89.52    8.68
  -2  -6   1   86.53    9.23
  -2  -6   2  180.67   12.95
  -2  -6   3   71.71   14.10
  -2  -6   4   58.56   15.35
  -2  -6   5   46.28   14.62
  -2  -6   6   31.08   13.82
  -2  -6   7  154.36   18.17
  -2  -6   8   42.33   15.10
  -2  -6   9   37.32   16.14
  -2  -6  10   43.75   17.49
  -2  -5 -11    0.33   15.57
  -2  -5 -10   14.92   12.52
  -2  -5  -9    0.20   13.33
  -2  -5  -8   25.63   12.49
  -2  -5  -7    7.43   10.88
  -2  -5  -6    7.38    9.70
  -2  -5  -5   20.96    4.93
  -2  -5  -4   79.87    5.39
  -2  -5  -3    9.19    3.77
  -2  -5  -2    2.99    3.47
  -2  -5  -1    6.19    3.18
  -2  -5   0   20.69    5.74
  -2  -5   1    6.77    3.63
  -2  -5   2   55.84   19.58
  -2  -5   3   13.09    4.48
  -2  -5   4   20.98    5.04
  -2  -5   5   45.89    5.79
  -2  -5   6   41.34   13.61
  -2  -5   7   74.71   15.25
  -2  -5   8   12.59   12.37
  -2  -5   9    0.03   13.28
  -2  -5  10   15.67   13.15
  -2  -5  11   17.28   14.67
  -2  -4 -11   23.84   15.12
  -2  -4 -10   43.68   14.32
  -2  -4  -9   35.12   13.30
  -2  -4  -8   18.57   11.72
  -2  -4  -7    7.28   11.03
  -2  -4  -6   48.40    6.10
  -2  -4  -5  100.64    6.60
  -2  -4  -4  185.58   10.94
  -2  -4  -3   56.14    3.94
  -2  -4  -2   66.03    3.50
  -2  -4  -1   40.35    2.68
  -2  -4   0  139.02   39.73
  -2  -4   1  150.14    6.43
  -2  -4   2  186.39   99.94
  -2  -4   3   88.91    4.49
  -2  -4   4   82.59    5.70
  -2  -4   5   84.31    6.76
  -2  -4   6   58.89    6.40
  -2  -4   7  148.02   14.62
  -2  -4   8   57.73    8.20
  -2  -4   9   58.61    8.29
  -2  -4  10   76.93    9.07
  -2  -4  11   72.13    9.81
  -2  -4  12   40.07   14.00
  -2  -3 -12   15.27   16.91
  -2  -3 -11   17.90   14.73
  -2  -3 -10   43.52   14.87
  -2  -3  -9   64.46   14.57
  -2  -3  -8   25.39   12.33
  -2  -3  -7   41.71   12.05
  -2  -3  -6   58.52    4.56
  -2  -3  -5  147.63    5.41
  -2  -3  -4  344.36    7.56
  -2  -3  -3   64.30    3.81
  -2  -3  -2   58.18    7.42
  -2  -3  -1   11.70    4.68
  -2  -3   0  202.83   10.50
  -2  -3   1  141.22   19.64
  -2  -3   2  399.83    7.59
  -2  -3   3  120.38    6.15
  -2  -3   4  160.55    9.87
  -2  -3   5  194.34    7.16
  -2  -3   6  131.29    8.55
  -2  -3   7  178.60    9.17
  -2  -3   8   60.79    7.18
  -2  -3   9   71.59   10.70
  -2  -3  10   91.59   12.83
  -2  -3  11   79.77   13.86
  -2  -3  12  104.85   39.90
  -2  -3  13   27.18   13.75
  -2  -2 -12    8.16   15.48
  -2  -2 -11    2.71   13.94
  -2  -2 -10   33.68   14.43
  -2  -2  -9   62.45   13.13
  -2  -2  -8   49.04   12.40
  -2  -2  -7   31.91   10.93
  -2  -2  -6   20.45   10.45
  -2  -2  -5   77.08    5.95
  -2  -2  -4  278.71    4.76
  -2  -2  -3    5.74    3.32
  -2  -2  -2   25.71    3.55
  -2  -2  -1    3.90    2.68
  -2  -2   0  132.43   10.68
  -2  -2   1   55.84    8.37
  -2  -2   2  231.33   10.69
  -2  -2   3   33.49    4.35
  -2  -2   4   59.35    4.42
  -2  -2   5   96.79    7.57
  -2  -2   6   88.74    5.96
  -2  -2   7   78.62    7.03
  -2  -2   8   27.83    6.77
  -2  -2   9   38.16   15.97
  -2  -2  10   56.18    8.01
  -2  -2  11   47.43   12.30
  -2  -2  12   42.24   10.75
  -2  -2  13   19.54   13.76
  -2  -1 -12    1.77   16.77
  -2  -1 -11   13.99   13.43
  -2  -1 -10    9.60    2.28
  -2  -1  -9    0.59   17.77
  -2  -1  -8    8.51   10.38
  -2  -1  -7   12.69    7.58
  -2  -1  -6   47.97    7.23
  -2  -1  -5  177.43   24.56
  -2  -1  -4  477.47   52.17
  -2  -1  -3   52.88    4.77
  -2  -1  -2   84.97    4.44
  -2  -1  -1   76.80    8.27
  -2  -1   0  378.11   10.67
  -2  -1   1  304.98   43.84
  -2  -1   2  503.29   67.66
  -2  -1   3  170.60    9.63
  -2  -1   4  200.89   42.68
  -2  -1   5  132.14    8.69
  -2  -1   6   85.16    9.27
  -2  -1   7  109.08    6.65
  -2  -1   8   61.29    5.83
  -2  -1   9   63.21    7.58
  -2  -1  10  109.80   18.46
  -2  -1  11   75.68   11.83
  -2  -1  12   61.01   10.66
  -2  -1  13   41.19   11.36
  -2   1 -12   29.94   16.16
  -2   1 -11   45.46   15.18
  -2   1 -10  118.34   15.81
  -2   1  -9  169.57   16.50
  -2   1  -8    9.85   10.61
  -2   1  -7   15.81    2.21
  -2   1  -6   40.96    2.41
  -2   1  -5  238.73   16.44
  -2   1  -4  445.12   82.99
  -2   1  -3   33.30    3.79
  -2   1  -2  147.28    5.83
  -2   1  -1  128.67   11.83
  -2   1   0  261.40    8.77
  -2   1   1  262.52    6.64
  -2   1   2  341.99   10.32
  -2   1   3  158.11    7.20
  -2   1   4  195.47   35.51
  -2   1   5   68.55    5.65
  -2   1   6  109.08    9.45
  -2   1   7  100.47    8.52
  -2   1   8   39.71   11.56
  -2   1   9   94.43   12.29
  -2   1  10   72.18   28.70
  -2   1  11   44.26   12.56
  -2   1  12   92.54   11.40
  -2   1  13   76.62   17.15
  -2   2 -12   15.40   15.25
  -2   2 -11   19.22   15.97
  -2   2 -10   27.40   13.93
  -2   2  -9  107.15   14.13
  -2   2  -8   35.06    6.43
  -2   2  -7   14.11    4.69
  -2   2  -6   14.74    2.55
  -2   2  -5  101.99    7.89
  -2   2  -4  167.82    3.19
  -2   2  -3   23.27    5.08
  -2   2  -2   42.82    4.12
  -2   2  -1   11.59    3.37
  -2   2   0   33.76    5.46
  -2   2   1   61.10    3.63
  -2   2   2  116.37    3.92
  -2   2   3   73.39    6.00
  -2   2   4   69.93    4.11
  -2   2   5   99.54    5.76
  -2   2   6   98.00    5.39
  -2   2   7   67.95    5.66
  -2   2   8   45.19    5.13
  -2   2   9   22.94    6.94
  -2   2  10   25.99    8.48
  -2   2  11   66.88   15.93
  -2   2  12   55.67   10.45
  -2   2  13   37.94   17.65
  -2   3 -12   20.83   17.05
  -2   3 -11   32.79   15.71
  -2   3 -10   87.82   15.45
  -2   3  -9  221.47   19.14
  -2   3  -8   16.08    6.66
  -2   3  -7   59.82    4.61
  -2   3  -6   65.35    4.49
  -2   3  -5  193.90    5.48
  -2   3  -4  268.40    7.43
  -2   3  -3   92.03    6.58
  -2   3  -2  114.57   12.49
  -2   3  -1   95.69    4.02
  -2   3   0   70.87    2.84
  -2   3   1  103.77    6.13
  -2   3   2  139.38    7.56
  -2   3   3  130.77    5.19
  -2   3   4  143.92   10.59
  -2   3   5  179.80    5.84
  -2   3   6  164.88    8.60
  -2   3   7  126.34    6.49
  -2   3   8   66.94    6.16
  -2   3   9   46.45    5.87
  -2   3  10   50.62    9.54
  -2   3  11   79.37   11.79
  -2   3  12   54.12   11.89
  -2   3  13   39.77   16.57
  -2   4 -11   44.81   14.74
  -2   4 -10   47.81   15.11
  -2   4  -9   89.75   15.58
  -2   4  -8    4.75    7.18
  -2   4  -7   21.34    7.49
  -2   4  -6   53.28    5.19
  -2   4  -5  178.32   12.32
  -2   4  -4  217.37    6.33
  -2   4  -3   68.49    6.27
  -2   4  -2   77.70    4.61
  -2   4  -1   60.63    4.02
  -2   4   0   64.84    3.98
  -2   4   1  100.96   11.82
  -2   4   2  123.22   12.05
  -2   4   3  117.91   11.58
  -2   4   4  127.52    5.17
  -2   4   5   72.97    6.31
  -2   4   6   85.38   10.02
  -2   4   7   63.87   10.16
  -2   4   8   38.59    6.78
  -2   4   9   63.49   13.23
  -2   4  10   30.55    8.77
  -2   4  11   61.68   10.84
  -2   4  12   38.63   16.54
  -2   5 -11    1.76   14.30
  -2   5 -10   27.59   13.73
  -2   5  -9   79.80   15.12
  -2   5  -8   10.60    7.91
  -2   5  -7   11.29    7.22
  -2   5  -6    8.07    5.07
  -2   5  -5   14.49    4.65
  -2   5  -4   26.27    6.34
  -2   5  -3   22.68    4.65
  -2   5  -2    2.91    3.48
  -2   5  -1   21.21    3.12
  -2   5   0    5.09   10.43
  -2   5   1   13.53    9.64
  -2   5   2   35.50   10.61
  -2   5   3   12.54    9.34
  -2   5   4    4.45    9.43
  -2   5   5  140.53   13.25
  -2   5   6   27.64   10.41
  -2   5   7   30.15   10.45
  -2   5   8   10.84    9.76
  -2   6  -8    2.60   13.14
  -2   6  -7   36.75   13.64
  -2   6  -6   42.02   13.72
  -2   6  -5  100.74    9.23
  -2   6  -4  113.79    9.49
  -2   6  -3   66.42    9.17
  -2   6  -2   51.24    8.35
  -2   6  -1   58.81    9.08
  -2   6   0   44.01   12.54
  -2   6   1   77.72   13.73
  -2   6   2   59.24   12.58
  -2   6   3   65.44   13.40
  -2   6   4   58.58   12.08
  -2   6   5   89.63   13.67
  -2   6   6   60.14   12.11
  -2   6   7   63.18   12.43
  -2   7  -8    6.41   14.54
  -2   7  -7   21.89   14.60
  -2   7  -6   32.68   15.35
  -2   7  -5   28.63   14.21
  -2   7  -4   29.06    9.24
  -2   7  -3   22.14    9.19
  -2   7  -2   23.65    8.82
  -2   7  -1   24.10    8.48
  -2   7   0   25.05   13.46
  -2   7   1   29.44   13.28
  -2   7   2   31.95   13.37
  -2   7   3   12.77   12.48
  -2   7   4   12.57   12.36
  -2   7   5   43.53   13.14
  -2   7   6   21.79   14.15
  -2   7   7   19.57   13.02
  -2   8  -5    7.24   15.45
  -2   8  -4   20.08   15.11
  -2   8  -3    2.46    9.78
  -2   8  -2    0.60    9.73
  -2   8  -1   18.26   15.41
  -2   8   0   16.78   15.48
  -2   8   1   11.19   15.77
  -2   8   2    7.34   14.84
  -2   8   3    0.33   14.22
  -2   8   4    4.03   13.98
  -2   8   5   24.21   14.71
  -2   8   6   11.73   14.14
  -1  -9  -3    8.87    9.19
  -1  -9  -2    3.64    9.33
  -1  -9  -1    4.17    9.51
  -1  -9   0    9.02   15.70
  -1  -8  -5    2.91   10.66
  -1  -8  -4    1.83    8.38
  -1  -8  -3    0.50    7.63
  -1  -8  -2    0.50    7.89
  -1  -8  -1    0.23    7.81
  -1  -8   0   10.80    7.92
  -1  -8   1    2.02   14.31
  -1  -8   2    6.60   14.68
  -1  -8   3    1.61   14.95
  -1  -8   4    7.11   15.38
  -1  -8   5   11.46   16.55
  -1  -7  -7    7.19   13.21
  -1  -7  -6   19.06   12.50
  -1  -7  -5   30.36    7.66
  -1  -7  -4   36.90    8.47
  -1  -7  -3    3.28    7.01
  -1  -7  -2   20.28    7.66
  -1  -7  -1   27.06    8.01
  -1  -7   0   23.63    7.77
  -1  -7   1   17.60    7.21
  -1  -7   2   40.77   14.28
  -1  -7   3   18.28   13.43
  -1  -7   4   32.30   15.05
  -1  -7   5   50.30   15.31
  -1  -7   6   47.97   16.04
  -1  -7   7   25.41   15.54
  -1  -7   8    3.04   15.54
  -1  -6 -10   21.11   12.67
  -1  -6  -9   34.03    9.52
  -1  -6  -8    1.34    7.83
  -1  -6  -7   11.71    7.36
  -1  -6  -6   47.66    6.03
  -1  -6  -5  109.22    8.98
  -1  -6  -4  141.69    5.35
  -1  -6  -3   22.36    4.25
  -1  -6  -2   46.18    5.10
  -1  -6  -1   48.24    8.82
  -1  -6   0   45.50    5.52
  -1  -6   1   42.39    5.18
  -1  -6   2   51.08    7.07
  -1  -6   3   41.31    5.20
  -1  -6   4   79.32    8.24
  -1  -6   5   93.90    8.96
  -1  -6   6   74.09    9.56
  -1  -6   7   33.90   14.36
  -1  -6   8   19.14   13.19
  -1  -6   9   45.24   15.35
  -1  -6  10    4.03   13.90
  -1  -6  11   39.48   17.27
  -1  -5 -11   21.61   13.49
  -1  -5 -10   40.71   13.68
  -1  -5  -9   97.33   14.45
  -1  -5  -8    0.59   10.46
  -1  -5  -7    8.36    9.68
  -1  -5  -6    1.27    5.46
  -1  -5  -5   18.09    4.01
  -1  -5  -4   23.50    3.83
  -1  -5  -3   12.86    3.96
  -1  -5  -2   11.42    3.87
  -1  -5  -1   27.00    3.39
  -1  -5   0   53.54    3.74
  -1  -5   1   31.89    4.32
  -1  -5   2   12.17    5.30
  -1  -5   3    4.92    3.94
  -1  -5   4   10.42    5.56
  -1  -5   5   82.51   10.97
  -1  -5   6   68.26    7.52
  -1  -5   7   21.01    7.38
  -1  -5   8   13.57    7.80
  -1  -5   9   19.91    8.46
  -1  -5  10    2.71    8.36
  -1  -5  11   28.04   12.32
  -1  -5  12   14.09   13.16
  -1  -4 -12   19.58   15.18
  -1  -4 -11   46.35   15.13
  -1  -4 -10   47.51   13.55
  -1  -4  -9   81.95   12.56
  -1  -4  -8    7.41   10.43
  -1  -4  -7   34.35   10.58
  -1  -4  -6   85.62    6.03
  -1  -4  -5  227.74   23.14
  -1  -4  -4  285.69    8.10
  -1  -4  -3   38.97    5.17
  -1  -4  -2   90.80    4.78
  -1  -4  -1   40.03    4.46
  -1  -4   0   47.87    2.76
  -1  -4   1   37.99    3.89
  -1  -4   2   42.37    5.06
  -1  -4   3   84.30   16.94
  -1  -4   4  154.01    7.57
  -1  -4   5  139.47    8.43
  -1  -4   6   90.58    7.80
  -1  -4   7   45.94    7.60
  -1  -4   8   12.62    6.71
  -1  -4   9   18.68    8.03
  -1  -4  10   15.88   11.77
  -1  -4  11   44.56   13.04
  -1  -4  12   27.82   12.89
  -1  -3 -12   26.33   15.62
  -1  -3 -11   98.81   15.60
  -1  -3 -10  128.60   17.76
  -1  -3  -9  234.06   17.43
  -1  -3  -8    7.22   10.70
  -1  -3  -7  105.84   11.84
  -1  -3  -6  137.58    6.69
  -1  -3  -5  224.73    4.90
  -1  -3  -4  216.85    6.27
  -1  -3  -3   85.80    7.52
  -1  -3  -2  145.05    6.25
  -1  -3  -1  229.01    5.35
  -1  -3   0  280.94    8.34
  -1  -3   1  201.02    4.10
  -1  -3   2   94.65    3.70
  -1  -3   3   80.81    5.40
  -1  -3   4  105.23    6.68
  -1  -3   5  271.15    9.59
  -1  -3   6  187.49    8.67
  -1  -3   7  132.76    8.31
  -1  -3   8   48.58    7.43
  -1  -3   9   63.32    7.68
  -1  -3  10   36.50    8.36
  -1  -3  11  110.46   12.78
  -1  -3  12   49.98   20.23
  -1  -3  13   20.57   14.22
  -1  -2 -13    0.19   15.17
  -1  -2 -12   14.72   14.29
  -1  -2 -11   70.85   15.91
  -1  -2 -10   91.19   14.65
  -1  -2  -9  210.35   18.07
  -1  -2  -8   10.41   10.80
  -1  -2  -7   38.84   10.82
  -1  -2  -6   62.68    9.55
  -1  -2  -5  123.52   12.42
  -1  -2  -4  102.59    2.67
  -1  -2  -3   25.43    2.30
  -1  -2  -2   93.40    5.56
  -1  -2  -1  155.72    8.75
  -1  -2   0  103.99    2.81
  -1  -2   1   67.95    2.86
  -1  -2   2   16.49    3.30
  -1  -2   3   46.13    4.39
  -1  -2   4   42.92    5.10
  -1  -2   5  188.70    7.03
  -1  -2   6   91.07    7.14
  -1  -2   7   80.56    7.09
  -1  -2   8    2.19    6.06
  -1  -2   9   34.42    8.40
  -1  -2  10    8.14    5.53
  -1  -2  11   56.80    9.89
  -1  -2  12   28.18   10.68
  -1  -2  13   17.31   13.31
  -1  -1 -13    4.21   16.59
  -1  -1 -12   18.24   10.56
  -1  -1 -11   38.89    8.36
  -1  -1 -10    0.62   17.06
  -1  -1  -9  159.64   15.44
  -1  -1  -8   16.48    6.46
  -1  -1  -7   23.70    5.47
  -1  -1  -6  155.98   24.14
  -1  -1  -5  477.11    8.86
  -1  -1  -4  529.13   19.49
  -1  -1  -3  197.66    6.41
  -1  -1  -2  305.91   22.75
  -1  -1  -1  173.65    3.18
  -1  -1   0  189.20    5.75
  -1  -1   1   46.83    4.62
  -1  -1   2   93.59    3.91
  -1  -1   3  394.03   21.47
  -1  -1   4  350.14    9.26
  -1  -1   5  346.98   13.77
  -1  -1   6  150.79    7.59
  -1  -1   7   82.30    6.00
  -1  -1   8    2.63    4.16
  -1  -1   9   19.85    4.43
  -1  -1  10    3.96    4.54
  -1  -1  11   52.50   11.53
  -1  -1  12   25.41    9.88
  -1  -1  13   11.24   16.08
  -1   1 -12   47.29   15.78
  -1   1 -11   64.50    7.35
  -1   1 -10  104.55   18.37
  -1   1  -9    3.40   14.32
  -1   1  -8   54.60   11.50
  -1   1  -7  124.89   12.71
  -1   1  -6  254.16   15.72
  -1   1  -5  315.23   22.38
  -1   1  -4  463.87   21.80
  -1   1  -3  364.92    8.73
  -1   1  -2  396.48   11.25
  -1   1  -1  361.82    6.79
  -1   1   0  611.46    7.90
  -1   1   1   23.45    2.76
  -1   1   2  131.57    5.91
  -1   1   3  361.51   11.92
  -1   1   4  240.33   18.00
  -1   1   5  478.27   21.32
  -1   1   6  172.00   18.37
  -1   1   7   90.73   18.34
  -1   1   8   11.75    5.42
  -1   1   9   25.02    4.85
  -1   1  10    4.36   13.00
  -1   1  11   49.56    9.94
  -1   1  12   29.41    9.02
  -1   1  13   44.11    9.65
  -1   2 -12   12.09   15.54
  -1   2 -11   56.78   15.49
  -1   2 -10  119.05   14.46
  -1   2  -9  127.09   24.09
  -1   2  -8   64.25    7.81
  -1   2  -7   57.81    6.47
  -1   2  -6   83.29    4.57
  -1   2  -5  101.00    4.73
  -1   2  -4  135.75    5.23
  -1   2  -3  132.24    4.45
  -1   2  -2  138.35    3.58
  -1   2  -1  254.97   25.65
  -1   2   0  899.66   51.24
  -1   2   1  204.00   17.38
  -1   2   2   81.23    3.76
  -1   2   3  111.77    3.85
  -1   2   4   25.78    3.35
  -1   2   5  299.86    7.73
  -1   2   6   66.38    5.05
  -1   2   7   60.22    4.62
  -1   2   8   10.69    4.09
  -1   2   9   40.16    8.34
  -1   2  10    4.49    7.92
  -1   2  11   35.37   11.12
  -1   2  12    9.67    9.94
  -1   2  13   15.77   10.83
  -1   3 -12   41.39   16.83
  -1   3 -11  108.43   17.52
  -1   3 -10  159.87   18.25
  -1   3  -9  173.41    9.80
  -1   3  -8  134.70    8.08
  -1   3  -7  118.13    6.09
  -1   3  -6  139.01    6.63
  -1   3  -5  188.73    6.44
  -1   3  -4  248.66    6.67
  -1   3  -3  206.77    6.26
  -1   3  -2  177.77    6.06
  -1   3  -1  285.52    5.08
  -1   3   0 1166.25  107.38
  -1   3   1  397.85   18.16
  -1   3   2  176.06   10.29
  -1   3   3   25.94    4.13
  -1   3   4   61.24   10.33
  -1   3   5  452.93   14.24
  -1   3   6  152.34    8.51
  -1   3   7  112.50    6.05
  -1   3   8   63.53    5.33
  -1   3   9   82.92    9.41
  -1   3  10   40.39    8.54
  -1   3  11   44.64    9.96
  -1   3  12   18.66    9.84
  -1   4 -12   55.64   17.83
  -1   4 -11   72.67   15.87
  -1   4 -10   58.61   14.14
  -1   4  -9   51.76   13.28
  -1   4  -8   33.23    7.06
  -1   4  -7   34.31    5.39
  -1   4  -6   88.47    5.96
  -1   4  -5  166.44   10.43
  -1   4  -4  279.60   11.82
  -1   4  -3  217.62   11.68
  -1   4  -2   89.14    4.16
  -1   4  -1   96.48    5.32
  -1   4   0  368.42    8.92
  -1   4   1   35.88    6.57
  -1   4   2   26.29    8.74
  -1   4   3   86.82    9.98
  -1   4   4   92.16   10.16
  -1   4   5  256.96   13.07
  -1   4   6   76.46    9.11
  -1   4   7   27.20    5.90
  -1   4   8    8.72    5.54
  -1   4   9    4.78    7.24
  -1   4  10    3.18    8.48
  -1   4  11   12.99    9.29
  -1   4  12    1.02   10.31
  -1   5 -11   30.47   13.53
  -1   5 -10   62.34   15.47
  -1   5  -9   79.70   13.53
  -1   5  -8   46.65   11.62
  -1   5  -7   20.71    5.81
  -1   5  -6   21.31    5.25
  -1   5  -5   39.56    5.79
  -1   5  -4   26.60    4.62
  -1   5  -3   19.88    6.40
  -1   5  -2   29.38    6.40
  -1   5  -1   70.03    4.46
  -1   5   0  403.02   21.49
  -1   5   1   23.11   40.00
  -1   5   2   21.61    9.53
  -1   5   3    3.69    9.17
  -1   5   4    0.55    8.24
  -1   5   5   67.91   10.43
  -1   5   6   13.22    8.77
  -1   5   7    9.36    8.05
  -1   5  10    3.33   11.98
  -1   5  11    5.28   12.12
  -1   6 -11   34.37   14.80
  -1   6 -10   49.21   15.07
  -1   6  -9   37.55   13.66
  -1   6  -8   26.69   12.42
  -1   6  -7   25.46    6.73
  -1   6  -6   59.01    7.78
  -1   6  -5  121.79    9.83
  -1   6  -4  121.99    7.34
  -1   6  -3   70.08    5.78
  -1   6  -2   47.67    4.99
  -1   6  -1   42.13    4.62
  -1   6   0  225.51   13.16
  -1   6   1   33.23    7.75
  -1   6   2   25.16   11.93
  -1   6   3   35.44   11.55
  -1   6   4   58.22   12.32
  -1   6   5  148.24   14.12
  -1   6   6   68.76   12.44
  -1   6   7   21.36   10.28
  -1   7  -6   28.84    9.08
  -1   7  -5   63.83   10.00
  -1   7  -4   54.46   18.84
  -1   7  -3   42.91    9.03
  -1   7  -2   27.01   10.07
  -1   7  -1   28.37    8.96
  -1   7   0  150.38   10.90
  -1   7   1   20.82    9.51
  -1   7   2   31.62   12.77
  -1   7   3   13.04   11.91
  -1   7   4   15.07   11.53
  -1   7   5   74.84   14.51
  -1   7   6   29.42   13.26
  -1   8  -5   19.01   10.19
  -1   8  -4   17.17   10.08
  -1   8  -3    2.92    9.86
  -1   8  -2    5.68    9.40
  -1   8  -1   19.38    9.89
  -1   8   0   99.60   13.38
  -1   8   1   11.65   10.73
  -1   8   2    8.05   14.49
  -1   8   3    0.43   12.87
  -1   8   4    0.33   14.31
  -1   8   5    0.06   13.20
  -1   9  -4   39.14   16.16
  -1   9  -3   14.06   15.92
  -1   9  -2    1.37   15.85
  -1   9  -1    3.71   16.16
  -1   9   0   33.70   16.39
  -1   9   1    1.82   17.33
  -1   9   2   18.27   16.10
  -1   9   3   17.70   17.19
  -1   9   4   25.02   15.36
  -1   9   5   54.13   18.92
   0  -9  -4   20.80   15.03
   0  -9  -3   14.30   14.76
   0  -9  -2   18.49   10.74
   0  -9  -1   15.62   10.64
   0  -9   0   16.85   15.88
   0  -8  -5    7.43    8.48
   0  -8  -4    1.27   13.14
   0  -8  -3   16.70   11.91
   0  -8  -2   18.94   12.34
   0  -8  -1   49.83   15.88
   0  -8   0   57.27   25.01
   0  -8   1    9.48   10.06
   0  -8   4    0.16   15.43
   0  -8   5   13.53   15.90
   0  -8   6    7.19   15.96
   0  -7 -10   13.96   13.60
   0  -7  -9   17.97   12.65
   0  -7  -8   25.70    9.21
   0  -7  -7   22.26    8.64
   0  -7  -6   44.42   11.60
   0  -7  -5   25.81    8.02
   0  -7  -4   24.71    7.99
   0  -7  -3   35.23   11.14
   0  -7  -2   18.93    7.08
   0  -7  -1   48.48   11.20
   0  -7   0   82.42   11.54
   0  -7   1   41.59    9.92
   0  -7   2   13.89    9.28
   0  -7   3   17.63    9.70
   0  -7   4   27.79   10.50
   0  -7   5   67.23   12.01
   0  -7   6   35.51    9.17
   0  -7   7   17.26   15.08
   0  -7   8    5.41   15.34
   0  -7   9   31.04   17.25
   0  -6 -10   15.02   12.75
   0  -6  -9   19.90    9.59
   0  -6  -8   37.73    9.07
   0  -6  -7   35.09    8.31
   0  -6  -6   77.43   14.62
   0  -6  -5  104.69    8.67
   0  -6  -4   72.52    7.94
   0  -6  -3   64.24    7.06
   0  -6  -2   43.70    4.35
   0  -6  -1   81.42    7.98
   0  -6   0  157.52   15.94
   0  -6   1   64.14   10.07
   0  -6   2   19.91    8.35
   0  -6   3   29.27    9.11
   0  -6   4   63.90   10.97
   0  -6   5  173.09   13.10
   0  -6   6   61.13    9.46
   0  -6   7   34.81    8.61
   0  -6   8   11.28    8.46
   0  -6   9   13.91    9.19
   0  -6  10    4.67   11.16
   0  -6  11    7.66   14.30
   0  -5 -11   24.59   15.88
   0  -5 -10   40.40   15.28
   0  -5  -9   47.66    9.00
   0  -5  -8   98.80    9.36
   0  -5  -7   28.79    5.90
   0  -5  -6   35.85    5.13
   0  -5  -5   31.44    4.84
   0  -5  -4   13.49    3.80
   0  -5  -3   30.61    3.41
   0  -5  -2   63.19    3.45
   0  -5  -1  157.54    8.05
   0  -5   0  473.18   11.47
   0  -5   1  163.53    6.37
   0  -5   2   35.55    5.03
   0  -5   3    4.88    7.75
   0  -5   4    5.85    7.90
   0  -5   5  112.69   12.52
   0  -5   6   36.87    9.71
   0  -5   7   57.59    8.67
   0  -5   8   39.33    8.42
   0  -5   9   55.93   10.24
   0  -5  10   11.81    8.55
   0  -5  11   16.61   11.71
   0  -5  12    1.79   14.00
   0  -4 -13   19.09   15.22
   0  -4 -12   22.76   13.27
   0  -4 -11   37.86   13.88
   0  -4 -10   31.55   11.96
   0  -4  -9   27.59   11.34
   0  -4  -8   70.91   12.36
   0  -4  -7   33.17    9.26
   0  -4  -6  113.03   10.42
   0  -4  -5  166.93    7.71
   0  -4  -4  120.47    8.35
   0  -4  -3   90.73    3.90
   0  -4  -2   49.05    3.47
   0  -4  -1   45.56    5.17
   0  -4   0  322.20    9.34
   0  -4   1   30.32    3.16
   0  -4   2   23.28    5.54
   0  -4   3   49.76    8.05
   0  -4   4   97.33    7.29
   0  -4   5  407.61   15.51
   0  -4   6   68.26   10.92
   0  -4   7   42.03    7.45
   0  -4   8    5.06    7.45
   0  -4   9   17.47   12.11
   0  -4  10   21.30    8.78
   0  -4  11   27.82    9.94
   0  -4  12   27.72   18.08
   0  -3 -13   50.93   16.62
   0  -3 -12   72.55   15.78
   0  -3 -11  111.56   16.83
   0  -3 -10  106.47   15.33
   0  -3  -9  124.64   15.46
   0  -3  -8  288.39   15.98
   0  -3  -7  117.75   18.83
   0  -3  -6  164.73   11.59
   0  -3  -5  270.40   29.38
   0  -3  -4  210.20   10.45
   0  -3  -3  173.40    5.42
   0  -3  -2  279.97    7.37
   0  -3  -1  478.92   16.58
   0  -3   0 2668.27   52.53
   0  -3   1  629.75   43.83
   0  -3   2  250.83   22.55
   0  -3   3   46.83    5.37
   0  -3   4  106.91    9.27
   0  -3   5  541.24   18.26
   0  -3   6  139.42    7.71
   0  -3   7  153.66   14.58
   0  -3   8  108.88    9.22
   0  -3   9  174.56   11.57
   0  -3  10   82.84    7.12
   0  -3  11   61.52   11.34
   0  -3  12   16.85   10.86
   0  -2 -13   21.70   16.46
   0  -2 -12   14.04   13.99
   0  -2 -11   30.43   14.84
   0  -2 -10   56.24   13.14
   0  -2  -9   85.06   12.03
   0  -2  -8  134.88   14.75
   0  -2  -7   60.24    9.67
   0  -2  -6   68.62    9.95
   0  -2  -5  167.48    8.31
   0  -2  -4   91.94    4.70
   0  -2  -3   46.45    2.40
   0  -2  -2  107.58    3.53
   0  -2  -1  123.27    5.19
   0  -2   0 2592.57   62.05
   0  -2   1  145.98    2.51
   0  -2   2   82.79    4.76
   0  -2   3    0.01    3.99
   0  -2   4   56.84    5.73
   0  -2   5  495.20   16.14
   0  -2   6   72.70    6.82
   0  -2   7   64.80    6.03
   0  -2   8  106.69   45.04
   0  -2   9   79.55    5.80
   0  -2  10   32.05    9.70
   0  -2  11   19.90    9.31
   0  -2  12    5.39   10.18
   0  -2  13   30.88   15.90
   0  -1 -12   32.65   10.26
   0  -1 -11   26.83    7.42
   0  -1 -10   32.87   11.24
   0  -1  -9   39.02   11.79
   0  -1  -8   37.40    8.31
   0  -1  -7   43.27    9.85
   0  -1  -6   90.78   10.46
   0  -1  -5  505.46   17.29
   0  -1  -4  365.58   27.01
   0  -1  -3  143.87    6.18
   0  -1  -2   76.36    3.68
   0  -1  -1  125.73    1.57
   0  -1   0 2073.09    5.24
   0  -1   1   26.70    5.31
   0  -1   2    8.49    3.33
   0  -1   3   18.85    3.67
   0  -1   4  236.63    8.50
   0  -1   5  773.95   23.16
   0  -1   6   91.40    3.94
   0  -1   7   27.89    3.60
   0  -1   8   35.18    3.72
   0  -1   9   34.77    5.62
   0  -1  10   25.03    4.87
   0  -1  11   20.80    8.25
   0  -1  12    7.45    8.96
   0  -1  13   21.80   40.42
   0   1 -13   58.34   17.70
   0   1 -12   22.43   12.76
   0   1 -11   37.62   13.77
   0   1 -10   27.35    4.64
   0   1  -9   11.90   10.86
   0   1  -8   38.25    8.49
   0   1  -7   32.39   10.03
   0   1  -6   50.61    8.05
   0   1  -5  763.20   20.98
   0   1  -4  263.20   25.57
   0   1  -3   18.45    5.39
   0   1  -2   10.58    2.93
   0   1  -1   28.06    8.08
   0   1   0 2170.65    9.00
   0   1   1  130.37    2.70
   0   1   2   59.76    3.03
   0   1   3  118.64    3.32
   0   1   4  323.94   22.38
   0   1   5  490.36   46.15
   0   1   6   89.78    6.17
   0   1   7   27.28    2.87
   0   1   8   60.47    6.80
   0   1   9   23.35    7.41
   0   1  10   31.92   10.12
   0   1  11   36.15   12.43
   0   1  12   45.65   10.01
   0   1  13   36.39   12.18
   0   2 -12   14.13   14.06
   0   2 -11   32.36    8.73
   0   2 -10   42.11    8.79
   0   2  -9   87.05   12.16
   0   2  -8   66.08    8.32
   0   2  -7   56.89    6.28
   0   2  -6   67.76   10.80
   0   2  -5  497.22   11.14
   0   2  -4   50.37    5.72
   0   2  -3    2.24    3.41
   0   2  -2   77.24    4.67
   0   2  -1  147.25    2.50
   0   2   0 2695.79   20.82
   0   2   1   95.80    4.75
   0   2   2   99.36    4.53
   0   2   3   43.25    4.43
   0   2   4  105.83    7.13
   0   2   5  192.20    5.02
   0   2   6   64.94    3.63
   0   2   7   39.81   11.00
   0   2   8  168.46   11.24
   0   2   9   66.65    9.11
   0   2  10   50.94    8.88
   0   2  11   26.42    9.53
   0   2  12   13.27    9.89
   0   2  13   19.35   17.42
   0   3 -12    4.94   14.80
   0   3 -11   61.93   15.16
   0   3 -10   64.60    8.17
   0   3  -9  147.99   13.05
   0   3  -8  106.01    7.78
   0   3  -7  127.55   13.20
   0   3  -6  139.94   15.35
   0   3  -5  536.20   32.51
   0   3  -4   88.33    5.14
   0   3  -3   37.97    3.78
   0   3  -2  259.98    4.78
   0   3  -1  632.88   24.53
   0   3   0 2797.38   34.04
   0   3   1  499.67   12.37
   0   3   2  249.89    8.17
   0   3   3  153.63   11.19
   0   3   4  203.54   12.53
   0   3   5  281.06    8.34
   0   3   6  186.32    8.19
   0   3   7  136.59    5.48
   0   3   8  240.58   10.75
   0   3   9  123.41   10.80
   0   3  10  110.80   10.73
   0   3  11   73.42   10.76
   0   3  12   47.67   10.44
   0   4 -12   10.05   15.30
   0   4 -11   32.31   13.99
   0   4 -10   10.18    7.71
   0   4  -9   22.10    7.39
   0   4  -8    1.48    6.89
   0   4  -7   18.89    6.52
   0   4  -6   62.95    7.20
   0   4  -5  380.61   10.38
   0   4  -4   80.58    5.78
   0   4  -3   24.99    4.92
   0   4  -2   22.16    4.53
   0   4  -1   20.70    3.52
   0   4   0  343.43    8.91
   0   4   1   32.63    4.81
   0   4   2   46.93    3.97
   0   4   3   80.62    6.83
   0   4   4  125.53   10.78
   0   4   5  168.97    7.23
   0   4   6   93.66    9.24
   0   4   7   40.55    5.40
   0   4   8   57.82   11.45
   0   4   9   11.97   10.37
   0   4  10   12.48   11.12
   0   4  11   45.24   13.72
   0   4  12   17.20   12.70
   0   5 -11   10.81   14.62
   0   5 -10   37.14   14.51
   0   5  -9   73.21   13.35
   0   5  -8   33.70    7.56
   0   5  -7   48.73    7.92
   0   5  -6   25.65    6.49
   0   5  -5  111.57   12.58
   0   5  -4    0.42    4.46
   0   5  -3    2.07    4.38
   0   5  -2   24.84    4.34
   0   5  -1  149.88    6.83
   0   5   0  454.71   12.77
   0   5   1  134.17   10.72
   0   5   2   49.24    4.77
   0   5   3   35.21    7.22
   0   5   4    6.23    8.17
   0   5   5   38.85    8.86
   0   5   6   40.51    8.28
   0   5   7   41.99   10.37
   0   5   8   89.66   12.43
   0   5   9   58.42   12.31
   0   5  10   28.17   12.57
   0   5  11   36.25   14.04
   0   6 -11   21.06   14.43
   0   6 -10    5.97   12.33
   0   6  -9   15.05   11.83
   0   6  -8   10.31    7.99
   0   6  -7   28.83    7.74
   0   6  -6   49.09    8.31
   0   6  -5  167.14   21.24
   0   6  -4   45.44    7.05
   0   6  -3   27.67    5.24
   0   6  -2   18.83    4.82
   0   6  -1   60.22    5.04
   0   6   0  150.61    7.00
   0   6   1   66.02    8.94
   0   6   2   43.26   10.40
   0   6   3   66.63    8.77
   0   6   4   86.70   13.05
   0   6   5   98.68   12.28
   0   6   6   92.32   11.79
   0   7  -9   16.65   13.01
   0   7  -8   17.90    8.79
   0   7  -7   22.74    8.46
   0   7  -6   39.04    8.42
   0   7  -5   89.45    9.19
   0   7  -4   21.81    6.96
   0   7  -3   18.21    6.25
   0   7  -2   18.27    8.52
   0   7  -1   46.10    9.39
   0   7   0   94.50   10.51
   0   7   1   54.85    9.57
   0   7   2   28.50    8.93
   0   7   3   28.40    9.08
   0   7   4   42.74   12.47
   0   7   5   47.87   13.28
   0   8  -7    0.95   13.25
   0   8  -6    4.32   13.64
   0   8  -5   19.04   13.24
   0   8  -4    1.58   13.06
   0   8  -3    0.19   12.52
   0   8  -2    1.50   12.96
   0   8  -1   30.09   10.33
   0   8   0   58.59   11.17
   0   8   1   40.41   10.96
   0   8   2   16.81   10.05
   0   8   3    0.42   14.94
   0   8   4    6.43   12.61
   0   8   5    1.71   12.82
   0   9  -2    7.76   15.11
   0   9  -1    6.76   15.65
   1  -9  -2    7.12   14.86
   1  -8  -8   22.16   14.77
   1  -8  -7    0.80   13.10
   1  -8  -6    9.71   12.48
   1  -8  -5   26.65    9.41
   1  -8  -4    1.77    8.77
   1  -8  -3    1.65    8.51
   1  -8  -2   12.92    8.66
   1  -8  -1    9.17    8.83
   1  -8   0   87.06   15.42
   1  -8   1    5.54   11.35
   1  -8   2    4.91   10.77
   1  -8   3    5.81   11.45
   1  -8   4    2.47   11.91
   1  -8   5   15.10    9.18
   1  -7  -9    5.89   13.60
   1  -7  -8   27.88    9.93
   1  -7  -7    6.67   11.08
   1  -7  -6   19.15    8.61
   1  -7  -5   45.34    8.94
   1  -7  -4   23.00    8.13
   1  -7  -3    8.46    7.54
   1  -7  -2   24.53    7.48
   1  -7  -1   26.36    8.25
   1  -7   0  152.84   13.22
   1  -7   1   19.72   10.85
   1  -7   2   36.23   10.72
   1  -7   3   17.47   10.78
   1  -7   4   44.24   12.72
   1  -7   5   59.57   13.29
   1  -7   6   39.30   12.47
   1  -7   7   22.61   13.32
   1  -7   8   39.31   14.05
   1  -7   9   37.20   11.53
   1  -6 -10   15.23   10.26
   1  -6  -9   11.70    9.25
   1  -6  -8   32.90   10.53
   1  -6  -7   22.60    8.29
   1  -6  -6   46.37    8.57
   1  -6  -5  135.18   14.80
   1  -6  -4   68.06    9.00
   1  -6  -3   14.51    7.03
   1  -6  -2   27.06    7.27
   1  -6  -1   40.74    9.06
   1  -6   0  239.28   14.73
   1  -6   1   27.95   10.28
   1  -6   2   48.86   10.52
   1  -6   3   88.44   12.15
   1  -6   4  112.38   13.83
   1  -6   5  119.31   14.31
   1  -6   6   67.50   12.88
   1  -6   7   16.63   11.79
   1  -6   8   32.55   14.16
   1  -6   9   37.92   10.40
   1  -6  10   52.17   12.49
   1  -5 -11   18.51   15.06
   1  -5 -10   26.67   13.79
   1  -5  -9   25.88    9.15
   1  -5  -8   35.67    7.20
   1  -5  -7   19.29    5.55
   1  -5  -6   15.62    5.06
   1  -5  -5   76.16    7.61
   1  -5  -4    5.36    2.98
   1  -5  -3    0.28    1.60
   1  -5  -2   22.47    5.77
   1  -5  -1   89.40    8.01
   1  -5   0  436.26   15.98
   1  -5   1   57.83    4.06
   1  -5   2   20.70    5.04
   1  -5   3   12.91    5.30
   1  -5   4   27.98    9.72
   1  -5   5   45.87   11.80
   1  -5   6   13.14   10.78
   1  -5   7   30.54   11.66
   1  -5   8   53.69   13.35
   1  -5   9   71.96    9.90
   1  -5  10   74.40    9.16
   1  -5  11   29.76   12.30
   1  -4 -12    7.79    9.78
   1  -4 -11   12.44    8.74
   1  -4 -10    5.82    8.31
   1  -4  -9   10.61    7.60
   1  -4  -8   17.46    7.46
   1  -4  -7   22.56    6.41
   1  -4  -6   65.12    7.64
   1  -4  -5  256.85   13.86
   1  -4  -4   76.98    3.77
   1  -4  -3   50.69    3.06
   1  -4  -2   25.47    4.40
   1  -4  -1   28.46    5.67
   1  -4   0  382.46   18.05
   1  -4   1   70.09    5.44
   1  -4   2   88.32    4.98
   1  -4   3  200.70    7.83
   1  -4   4  251.98   15.15
   1  -4   5  177.52    9.68
   1  -4   6   79.43   11.52
   1  -4   7   29.08   11.16
   1  -4   8   43.19   12.31
   1  -4   9   43.89    7.71
   1  -4  10   63.28   10.45
   1  -4  11   55.60   11.68
   1  -4  12   29.07   12.07
   1  -3 -13   43.21   15.81
   1  -3 -12   10.40   12.62
   1  -3 -11   70.10   14.16
   1  -3 -10   24.55   11.74
   1  -3  -9   79.98   12.65
   1  -3  -8   58.92   10.28
   1  -3  -7  119.46    7.98
   1  -3  -6  144.59    5.72
   1  -3  -5  440.17   28.79
   1  -3  -4   52.68    4.03
   1  -3  -3   17.98    3.25
   1  -3  -2  136.33   11.58
   1  -3  -1  403.59   24.09
   1  -3   0 1345.03   35.10
   1  -3   1  282.29   10.33
   1  -3   2  162.41    7.35
   1  -3   3  223.21    6.42
   1  -3   4  261.61    7.89
   1  -3   5  200.59   13.61
   1  -3   6  119.02   12.35
   1  -3   7  155.25   40.66
   1  -3   8  153.87   10.77
   1  -3   9  197.53    8.61
   1  -3  10  145.37   12.77
   1  -3  11   92.04   12.45
   1  -3  12   27.62   14.27
   1  -2 -13   32.27   16.54
   1  -2 -12    0.85   13.41
   1  -2 -11   14.52   11.05
   1  -2 -10   12.70   11.94
   1  -2  -9   44.97   11.30
   1  -2  -8   22.99   10.24
   1  -2  -7   56.75    4.72
   1  -2  -6   67.35   16.11
   1  -2  -5  337.69    8.83
   1  -2  -4   17.74    3.19
   1  -2  -3   95.56    3.73
   1  -2  -2   77.01    3.11
   1  -2  -1  178.22    6.88
   1  -2   0  901.38   38.16
   1  -2   1  224.02    6.20
   1  -2   2  124.99    3.55
   1  -2   3  127.13    4.09
   1  -2   4  140.87   13.93
   1  -2   5  104.01    7.60
   1  -2   6   75.25    7.12
   1  -2   7   48.44    7.99
   1  -2   8   93.42    9.91
   1  -2   9  117.11    9.56
   1  -2  10   95.99   10.37
   1  -2  11   86.38   11.70
   1  -2  12   26.70   11.71
   1  -1 -13   61.66   14.76
   1  -1 -12   26.38   15.53
   1  -1 -11   24.74    9.98
   1  -1 -10   17.72   10.18
   1  -1  -9   38.30   11.43
   1  -1  -8    1.34    3.30
   1  -1  -7   50.74   16.59
   1  -1  -6  142.21   15.61
   1  -1  -5  526.72   48.80
   1  -1  -4  238.21    6.85
   1  -1  -3  354.96   11.53
   1  -1  -2   99.66    3.20
   1  -1  -1   32.01    2.36
   1  -1   0  635.11   14.10
   1  -1   1  297.11    3.97
   1  -1   2  360.29   16.55
   1  -1   3  361.01   19.25
   1  -1   4  396.03   12.07
   1  -1   5  330.31    8.50
   1  -1   6  152.60    9.11
   1  -1   7   57.64    7.34
   1  -1   8   40.06    6.24
   1  -1   9  132.07    9.66
   1  -1  10   44.04   20.79
   1  -1  11  189.71   29.77
   1  -1  12   26.09    9.64
   1  -1  13   13.61   16.78
   1   1 -13   67.17   16.93
   1   1 -12   59.99   16.78
   1   1 -11   38.03   10.34
   1   1 -10    5.63    8.56
   1   1  -9   39.77   12.09
   1   1  -8    1.15    8.82
   1   1  -7  110.90   11.93
   1   1  -6  148.23   11.85
   1   1  -5  341.68   14.53
   1   1  -4  327.36   18.22
   1   1  -3  351.82    7.10
   1   1  -2   69.42    3.60
   1   1  -1   59.14    4.01
   1   1   0  206.72   23.73
   1   1   1  137.92    2.73
   1   1   2  270.20    4.63
   1   1   3  185.76    4.41
   1   1   4  473.08   37.19
   1   1   5  441.33   44.97
   1   1   6  174.37   10.61
   1   1   7   90.18    7.49
   1   1   8   97.08    9.08
   1   1   9  112.50    9.55
   1   1  10  124.62   14.21
   1   1  11  142.65   11.57
   1   1  12   38.04    9.74
   1   2 -12   37.94   10.05
   1   2 -11   57.65   14.50
   1   2 -10   12.22   11.76
   1   2  -9   22.18   11.31
   1   2  -8   18.79    9.97
   1   2  -7   66.37   10.99
   1   2  -6   98.43   11.68
   1   2  -5  224.62   10.72
   1   2  -4   32.66    4.15
   1   2  -3   33.92    3.10
   1   2  -2   12.73    2.68
   1   2  -1   85.25    6.09
   1   2   0  126.28    7.65
   1   2   1  126.95   11.32
   1   2   2   82.04    3.96
   1   2   3   20.13    4.60
   1   2   4   94.54    7.48
   1   2   5  120.81   25.62
   1   2   6   52.97    7.47
   1   2   7   42.03    9.25
   1   2   8   18.22    7.54
   1   2   9  154.77   11.57
   1   2  10   79.96   10.16
   1   2  11   77.34   11.05
   1   2  12   13.62   10.02
   1   3 -12   44.96   10.74
   1   3 -11   81.28   10.79
   1   3 -10   35.71    9.70
   1   3  -9   61.61   18.60
   1   3  -8   51.44    8.17
   1   3  -7  115.11    8.37
   1   3  -6  166.35    8.82
   1   3  -5  268.89   29.89
   1   3  -4  102.56    5.01
   1   3  -3   82.07    5.05
   1   3  -2   96.28    4.71
   1   3  -1  214.31   10.76
   1   3   0  285.90    5.98
   1   3   1  213.00    6.73
   1   3   2  134.62    4.82
   1   3   3   88.91    5.11
   1   3   4  202.54   26.09
   1   3   5  220.24   10.88
   1   3   6  124.53   11.31
   1   3   7   83.56    9.95
   1   3   8   16.28   10.20
   1   3   9  209.32   15.89
   1   3  10  123.55   11.92
   1   3  11   83.44   10.86
   1   3  12   28.43   14.34
   1   4 -12   38.53   16.09
   1   4 -11   55.55   10.41
   1   4 -10    4.71    8.27
   1   4  -9   28.66    8.76
   1   4  -8    5.71    7.32
   1   4  -7   34.29    7.39
   1   4  -6   77.95    7.79
   1   4  -5  117.87    8.36
   1   4  -4  131.74    8.10
   1   4  -3   73.60   12.02
   1   4  -2   41.58    3.89
   1   4  -1   40.95    3.77
   1   4   0   42.13    3.37
   1   4   1   40.26    5.86
   1   4   2   77.35    7.70
   1   4   3   38.31    6.06
   1   4   4  246.25    7.98
   1   4   5  210.29   12.86
   1   4   6   75.20    9.41
   1   4   7   29.41    9.21
   1   4   8    4.22    9.28
   1   4   9   79.76   12.93
   1   4  10   52.86   12.69
   1   4  11   32.33   13.52
   1   4  12   17.80   13.61
   1   5 -11   29.22   15.18
   1   5 -10    9.40    8.38
   1   5  -9   19.41    8.23
   1   5  -8    6.72    7.69
   1   5  -7   25.86    8.51
   1   5  -6   79.07    7.99
   1   5  -5   93.14    8.74
   1   5  -4    7.89    6.06
   1   5  -3    3.48    5.32
   1   5  -2    7.56    5.41
   1   5  -1   26.99    5.20
   1   5   0   59.03    6.11
   1   5   1   30.77    5.55
   1   5   2   10.25    5.13
   1   5   3   23.56    5.90
   1   5   4   24.70   11.20
   1   5   6    9.24    7.77
   1   5   7    2.30    8.26
   1   5   8    0.59    8.82
   1   5   9   55.94   12.33
   1   5  10   41.18   12.32
   1   5  11   10.33   12.76
   1   6 -10   15.26    9.36
   1   6  -9   21.34    9.53
   1   6  -8   16.93   11.87
   1   6  -7   23.12    8.09
   1   6  -6   68.04    8.72
   1   6  -5   83.63    8.99
   1   6  -4   74.03    7.77
   1   6  -3   34.17    6.89
   1   6  -2   43.40    6.78
   1   6  -1   48.46    6.56
   1   6   0   45.80    6.54
   1   6   1   41.91    5.92
   1   6   2   34.90    6.27
   1   6   3   22.65    6.52
   1   6   4  134.58   14.84
   1   6  10   33.89   12.59
   1   7  -9   18.33    9.80
   1   7  -8   15.64   10.25
   1   7  -7   13.66    8.31
   1   7  -6   53.09    9.36
   1   7  -5   39.72    8.17
   1   7  -4   17.31    7.31
   1   7  -3    4.63    6.46
   1   7  -2   21.45    6.67
   1   7  -1   20.35    6.46
   1   7   0   24.38    6.35
   1   7   1   25.67   12.55
   1   7   2   18.55   12.43
   1   7   3   21.41   13.61
   1   7   4   25.76   15.25
   1   8  -7    4.47   14.29
   1   8  -6   26.91   15.20
   1   8  -5   25.37   14.35
   1   8  -4    7.99   13.97
   1   8  -3    5.31   13.46
   1   8  -2    6.07   12.86
   1   8  -1    7.54   12.96
   1   8   0    2.07   13.37
   1   8   1   10.31   13.42
   1   8   2    5.73   14.12
   1   8   3   20.52   14.40
   1   8   4   24.51   15.47
   2  -9  -4   22.74   14.60
   2  -9  -3   13.18   14.94
   2  -9  -2    9.71   14.95
   2  -9  -1    2.51   14.59
   2  -9   0   14.75   15.15
   2  -9   1    6.10   13.55
   2  -9   2    9.88   13.69
   2  -9   3   27.42   13.79
   2  -8  -7   10.13   15.11
   2  -8  -6    3.31   13.94
   2  -8  -5   28.97   10.52
   2  -8  -4    0.31    9.45
   2  -8  -3    0.11    9.29
   2  -8  -2    5.39   12.39
   2  -8  -1    2.82   12.77
   2  -8   0    9.86   13.15
   2  -8   1    0.32   12.76
   2  -8   2    4.02   11.92
   2  -8   3    1.18   12.43
   2  -8   4    2.06   13.06
   2  -8   5    4.33   14.01
   2  -8   6    7.46   12.78
   2  -8   7   13.94   14.27
   2  -7  -8    9.95   10.33
   2  -7  -7   31.10    9.75
   2  -7  -6   20.51    9.76
   2  -7  -5   48.46    9.98
   2  -7  -4   11.77    8.23
   2  -7  -3   15.61    8.65
   2  -7  -2   29.29    8.81
   2  -7  -1   43.62   11.99
   2  -7   0   34.37   12.00
   2  -7   1   30.13   11.85
   2  -7   2    9.61   11.62
   2  -7   3   37.35   12.75
   2  -7   4   21.39   12.90
   2  -7   5   25.50   13.18
   2  -7   6   13.70   11.61
   2  -7   7   22.20   14.17
   2  -7   8    2.03   14.12
   2  -6 -10   18.07   10.32
   2  -6  -9   27.05    9.87
   2  -6  -8   16.37    9.19
   2  -6  -7   30.60    8.71
   2  -6  -6   50.35    8.86
   2  -6  -5   64.27    9.31
   2  -6  -4   51.92    8.51
   2  -6  -3   49.01    8.15
   2  -6  -2   50.09    8.12
   2  -6  -1   57.19    8.52
   2  -6   0   45.06   11.46
   2  -6   1   37.59   11.35
   2  -6   2   35.86   10.95
   2  -6   3   58.91   12.73
   2  -6   4   85.33   13.82
   2  -6   5   88.25   14.94
   2  -6   6   51.74    9.52
   2  -6   7   30.22   13.88
   2  -6   8    3.36    9.76
   2  -6   9   69.80   16.97
   2  -5 -11   16.31   10.47
   2  -5 -10    7.17    9.40
   2  -5  -9    7.87    8.39
   2  -5  -8    0.83    7.60
   2  -5  -7   22.93    7.99
   2  -5  -6   36.07    7.71
   2  -5  -5  120.41    8.90
   2  -5  -4    1.52    6.46
   2  -5  -3    5.80    6.52
   2  -5  -2   14.88    4.22
   2  -5  -1   25.78    6.59
   2  -5   0    4.01    9.32
   2  -5   1   22.71    8.94
   2  -5   2    0.78    9.52
   2  -5   3   26.76   10.92
   2  -5   4   16.82   11.41
   2  -5   5   15.21   10.25
   2  -5   6    0.43   10.90
   2  -5   7   18.76    7.95
   2  -5   8    2.26   12.14
   2  -5   9   82.67   23.05
   2  -5  10   31.15   11.02
   2  -5  11   17.29   17.31
   2  -4 -12   31.83   15.35
   2  -4 -11   55.44    9.94
   2  -4 -10   27.10    8.17
   2  -4  -9   41.29    8.38
   2  -4  -8   28.46    5.87
   2  -4  -7   71.62    6.34
   2  -4  -6   75.52    5.18
   2  -4  -5   67.71    5.13
   2  -4  -4   76.42   12.07
   2  -4  -3  112.87   12.18
   2  -4  -2  113.60   10.50
   2  -4  -1  116.91    7.24
   2  -4   0   94.21    9.09
   2  -4   1   51.70   10.52
   2  -4   2   73.31    9.88
   2  -4   3   66.40    6.67
   2  -4   4  202.93   13.73
   2  -4   5  143.91   15.01
   2  -4   6   42.04    7.55
   2  -4   7   30.69    9.51
   2  -4   8    8.34    8.74
   2  -4   9  118.18   11.84
   2  -4  10   47.56   11.35
   2  -4  11   36.98   11.14
   2  -4  12   30.56   19.05
   2  -3 -13   33.11   11.16
   2  -3 -12   57.79   10.16
   2  -3 -11   82.81    9.97
   2  -3 -10   34.08    8.80
   2  -3  -9   56.62    8.09
   2  -3  -8   64.60    7.80
   2  -3  -7  128.91    7.83
   2  -3  -6  169.08    8.63
   2  -3  -5  188.97    6.13
   2  -3  -4  129.03    4.30
   2  -3  -3  119.02   10.32
   2  -3  -2  159.51   10.66
   2  -3  -1  111.10    3.88
   2  -3   0   68.17    9.03
   2  -3   1   81.61    5.79
   2  -3   2  115.54    6.16
   2  -3   3   95.58    5.57
   2  -3   4  269.49   17.41
   2  -3   5  193.81    7.33
   2  -3   6   79.63   21.84
   2  -3   7   47.19    8.23
   2  -3   8   13.55    9.42
   2  -3   9  202.43   13.44
   2  -3  10   87.48   11.39
   2  -3  11   58.40   12.02
   2  -3  12   23.29   17.75
   2  -2 -13   26.03   15.74
   2  -2 -12   82.11   15.86
   2  -2 -11   69.63   14.17
   2  -2 -10    6.22   10.92
   2  -2  -9   24.79    7.24
   2  -2  -8   35.58    6.60
   2  -2  -7   79.71    7.13
   2  -2  -6   97.33    6.30
   2  -2  -5  115.24    6.88
   2  -2  -4   57.18    3.08
   2  -2  -3   67.95    3.96
   2  -2  -2  107.98    4.60
   2  -2  -1   62.92    3.81
   2  -2   0   35.29    5.21
   2  -2   1   22.14    2.70
   2  -2   2   42.41    3.26
   2  -2   3   28.32    3.17
   2  -2   4  178.12    7.79
   2  -2   5   98.25    8.96
   2  -2   6   10.66    6.30
   2  -2   7    2.97   10.88
   2  -2   8   23.68    8.42
   2  -2   9  118.73   10.62
   2  -2  10   41.75   13.94
   2  -2  11    7.34    9.96
   2  -2  12    4.27   10.68
   2  -1 -13    1.70   16.17
   2  -1 -12   34.89    9.67
   2  -1 -11   45.07   12.77
   2  -1 -10    5.13   13.36
   2  -1  -9    7.62    1.89
   2  -1  -8   59.86   11.66
   2  -1  -7   93.66   10.00
   2  -1  -6  101.44   37.01
   2  -1  -5   71.08    4.87
   2  -1  -4  177.45   12.21
   2  -1  -3  151.76    4.06
   2  -1  -2  242.84    9.13
   2  -1  -1  235.20   12.47
   2  -1   0  288.43    5.49
   2  -1   1  137.51   10.30
   2  -1   2  134.22    4.84
   2  -1   3   20.97    4.50
   2  -1   4  483.13    8.15
   2  -1   5  234.25    5.19
   2  -1   6   38.43    4.18
   2  -1   7   12.18    4.34
   2  -1   8    8.63    7.68
   2  -1   9  179.79   12.65
   2  -1  10   71.52    9.92
   2  -1  11   42.46   12.39
   2  -1  12   12.62   17.37
   2   1 -13   48.97   15.46
   2   1 -12   60.00   15.40
   2   1 -11   71.63   13.40
   2   1 -10   76.50   11.65
   2   1  -9   82.62   14.61
   2   1  -8  104.87   11.94
   2   1  -7   70.67    9.32
   2   1  -6  161.39   14.21
   2   1  -4  175.17   10.50
   2   1  -3  152.06    5.65
   2   1  -2  475.18    6.54
   2   1  -1  296.92   14.21
   2   1   0  396.83   13.07
   2   1   1  102.62   10.03
   2   1   2   90.04    4.17
   2   1   3   31.90    2.99
   2   1   4  492.14   49.97
   2   1   5  178.11   11.00
   2   1   6   35.31    5.04
   2   1   7   24.79    6.68
   2   1   8    4.80    6.20
   2   1   9  129.56    9.92
   2   1  10   81.09   12.27
   2   1  11   10.20    8.24
   2   1  12   40.62   11.90
   2   2 -13   35.72   15.59
   2   2 -12   35.88   14.91
   2   2 -11   34.21   14.33
   2   2 -10   43.83   13.87
   2   2  -9   31.06   11.32
   2   2  -8   32.10   11.92
   2   2  -7   59.75   10.97
   2   2  -6  104.94   10.19
   2   2  -5   89.68   12.38
   2   2  -4   65.36    4.05
   2   2  -3   39.01    4.61
   2   2  -2  219.61    4.47
   2   2  -1   52.32    5.31
   2   2   0  127.80    7.90
   2   2   1    4.28    2.85
   2   2   2   26.60    3.27
   2   2   3   10.28    3.19
   2   2   4  279.13    5.82
   2   2   5   86.90    9.07
   2   2   6   13.26    8.34
   2   2   7   20.37    9.06
   2   2   8   18.51   10.16
   2   2   9   50.08    8.43
   2   2  10   15.34    9.24
   2   2  11   11.50    9.46
   2   2  12    5.58   10.34
   2   3 -13   53.45   17.55
   2   3 -12   57.60   11.57
   2   3 -11   65.25   10.99
   2   3 -10   97.68   13.91
   2   3  -9   65.58    9.90
   2   3  -8   51.72    8.30
   2   3  -7  145.59    9.84
   2   3  -6  147.91    6.08
   2   3  -5  197.81    9.64
   2   3  -4  164.28    8.18
   2   3  -3  147.11    9.00
   2   3  -2  382.29    9.20
   2   3  -1  137.45    8.15
   2   3   0  193.98    6.71
   2   3   1   20.52    6.45
   2   3   2   70.14    3.77
   2   3   3   57.79    4.14
   2   3   4  346.92    9.74
   2   3   5  139.24    8.43
   2   3   6   69.87    8.82
   2   3   7   22.38    9.37
   2   3   8   26.18    9.82
   2   3   9   55.98   12.63
   2   3  10   42.43   12.08
   2   3  11   18.05   13.51
   2   3  12    9.92   13.36
   2   4 -12   57.96   16.74
   2   4 -11   52.69   11.41
   2   4 -10   74.02   21.77
   2   4  -9   45.69    8.96
   2   4  -8   45.45    9.67
   2   4  -7  140.15   10.13
   2   4  -6   46.99    8.32
   2   4  -5   83.55    8.57
   2   4  -4   75.43    5.24
   2   4  -3   93.33    4.66
   2   4  -2  313.86    9.06
   2   4  -1  162.88    7.59
   2   4   0  207.09   19.60
   2   4   1   48.74    5.76
   2   4   2   70.01    6.70
   2   4   3   51.85    4.81
   2   4   4  192.23    6.80
   2   4   5   89.89    6.81
   2   4   6   48.20    9.45
   2   4   7   16.97    8.58
   2   4   8   14.32    9.37
   2   4   9   51.78   11.45
   2   4  10   33.46   12.98
   2   4  11    9.78   12.39
   2   5 -12   19.89   16.12
   2   5 -11   23.29   14.85
   2   5 -10    9.65    9.73
   2   5  -9   12.04    8.67
   2   5  -8    2.25    8.45
   2   5  -7   64.68    9.44
   2   5  -6   45.31   13.28
   2   5  -5   42.36    7.74
   2   5  -4   28.87    7.23
   2   5  -3   13.52    6.24
   2   5  -2   79.62    7.38
   2   5  -1    8.44    6.04
   2   5   0   17.70    5.96
   2   5   1    9.22    5.60
   2   5   2    0.04    5.94
   2   5   3   11.97    8.26
   2   5   4   97.25   20.57
   2   5   5   23.00    6.13
   2   5   6   10.14    7.21
   2   5   7   10.64    7.80
   2   5   8    5.47    9.32
   2   5   9    5.14   10.68
   2   5  10    0.82   11.26
   2   5  11    0.33   12.14
   2   6 -10   47.96   15.89
   2   6  -9   42.89   10.42
   2   6  -8   36.40   10.26
   2   6  -7  117.94   10.86
   2   6  -6   25.60    8.46
   2   6  -5   65.50    8.69
   2   6  -4   50.92    8.76
   2   6  -3   82.46    8.96
   2   6  -2  154.97   25.16
   2   6  -1   71.95    7.82
   2   6   0   74.29    8.38
   2   6   1   53.87    7.45
   2   6   2   44.01   11.49
   2   6   3   43.82    8.16
   2   6   4   99.04   10.57
   2   6   5   61.93   14.20
   2   7  -8    5.46    9.55
   2   7  -7   72.81   10.98
   2   7  -6   10.13    8.59
   2   7  -5   27.33   11.36
   2   7  -4   11.66    7.93
   2   7  -3   35.32    8.48
   2   7  -2   70.10    8.76
   2   7  -1   26.67    7.78
   2   7   0   26.37    7.71
   2   7   1   31.91    7.73
   2   7   2   13.40   18.40
   2   7   3   26.14    8.29
   2   7   4   54.61   15.10
   2   7   5   33.72   16.40
   2   8  -7   35.43   13.79
   2   8  -6    3.76   12.74
   2   8  -4    6.44   14.31
   2   8  -3    8.28   13.82
   2   8  -2   16.51   13.88
   2   8  -1    0.65   13.16
   2   8   0    2.01   13.37
   2   8   1    7.58   13.56
   2   8   2    6.32   13.89
   2   8   3    0.88   14.66
   2   8   4   12.96   15.76
   3  -8  -5    4.31   14.90
   3  -8  -4    4.58   10.03
   3  -8  -3    1.74   13.09
   3  -8  -2    1.96   13.78
   3  -8  -1    9.37   13.33
   3  -8   0    2.43   13.29
   3  -8   1    2.71   13.86
   3  -8   2    5.43   13.51
   3  -8   3    7.04   14.05
   3  -8   4   25.76   15.86
   3  -7  -7   20.29   10.47
   3  -7  -6   28.05   14.07
   3  -7  -5   13.91    9.95
   3  -7  -4   34.72   16.04
   3  -7  -3   45.35   10.16
   3  -7  -2   49.82   14.43
   3  -7  -1   29.34   13.66
   3  -7   0   22.39   13.10
   3  -7   1   12.90   12.32
   3  -7   2   18.72   13.02
   3  -7   3    1.06   12.56
   3  -7   4   48.34   14.22
   3  -7   5   39.01   14.95
   3  -7   6   11.85   14.22
   3  -7   7   13.08   15.29
   3  -6  -9   27.44   10.92
   3  -6  -8   59.10   10.83
   3  -6  -7   59.35   10.40
   3  -6  -6   36.11    9.19
   3  -6  -5   20.79    9.06
   3  -6  -4   73.45    9.68
   3  -6  -3   68.42    9.56
   3  -6  -2  134.74   16.08
   3  -6  -1   84.50   13.01
   3  -6   0   82.04   14.03
   3  -6   1   58.44   13.46
   3  -6   2   63.13   13.86
   3  -6   3   36.31   13.24
   3  -6   4   72.49   13.89
   3  -6   5   28.89   13.55
   3  -6   6   16.65   14.07
   3  -6   7   42.11   14.90
   3  -6   8   23.68   14.94
   3  -5 -11    1.28   14.81
   3  -5 -10   12.30    9.62
   3  -5  -9    5.44    8.65
   3  -5  -8    8.93    8.52
   3  -5  -7   31.02    8.49
   3  -5  -6   13.29    7.96
   3  -5  -5   12.27    7.34
   3  -5  -4   37.26    8.09
   3  -5  -3   26.01    7.23
   3  -5  -2   56.68   11.43
   3  -5  -1   18.05    9.77
   3  -5   0   14.83   10.85
   3  -5   1   17.53    9.44
   3  -5   2    8.89    4.57
   3  -5   3   11.97    5.34
   3  -5   4  111.97   20.24
   3  -5   5   33.17    8.05
   3  -5   6   12.34   12.64
   3  -5   7   17.19   13.09
   3  -5   8   50.49   15.67
   3  -5   9   14.48   15.13
   3  -4 -12   20.41   15.06
   3  -4 -11   24.99    9.71
   3  -4 -10   62.79   10.07
   3  -4  -9   42.34    8.85
   3  -4  -8   57.99    9.29
   3  -4  -7  101.34    9.27
   3  -4  -6   31.32    7.25
   3  -4  -5   23.22    3.92
   3  -4  -4   45.77    7.06
   3  -4  -3   96.30    8.16
   3  -4  -2  310.44   15.94
   3  -4  -1  158.82   12.25
   3  -4   0  166.43   14.56
   3  -4   1   36.78    2.53
   3  -4   2   81.74    5.13
   3  -4   3   49.92    6.12
   3  -4   4  145.19   15.70
   3  -4   5   57.21    7.59
   3  -4   6   34.54    7.03
   3  -4   7   48.12   19.84
   3  -4   8   42.06   10.20
   3  -4   9   80.15   10.91
   3  -4  10   37.76   13.97
   3  -4  11    1.77   14.67
   3  -3 -13    4.38   14.09
   3  -3 -12   22.62    9.45
   3  -3 -11   33.47    9.02
   3  -3 -10   57.39   10.12
   3  -3  -9   49.16    6.22
   3  -3  -8   59.83    5.79
   3  -3  -7  178.65    7.26
   3  -3  -6   79.49    6.44
   3  -3  -5   83.90    5.14
   3  -3  -4  103.65    6.78
   3  -3  -3  132.80    4.94
   3  -3  -2  427.42   11.50
   3  -3  -1  181.80   12.50
   3  -3   0  190.77   12.90
   3  -3   1   83.71    7.84
   3  -3   2  169.41    4.77
   3  -3   3  132.63    6.67
   3  -3   4  333.74    7.80
   3  -3   5  137.28    9.18
   3  -3   6   78.14    8.32
   3  -3   7   58.71   10.01
   3  -3   8   82.91    9.95
   3  -3   9   69.58   10.41
   3  -3  10   43.06   10.43
   3  -3  11   27.23   16.23
   3  -3  12   38.72   17.78
   3  -2 -13    9.88   14.83
   3  -2 -12   34.00   14.53
   3  -2 -11   12.04    8.58
   3  -2 -10   30.63    7.99
   3  -2  -9   21.58    8.35
   3  -2  -8   28.95    5.38
   3  -2  -7  142.80    8.23
   3  -2  -6   26.57    4.39
   3  -2  -5   40.57    4.19
   3  -2  -4   29.07    4.18
   3  -2  -3   68.31    4.13
   3  -2  -2  376.14   24.11
   3  -2  -1   93.62    6.09
   3  -2   0   83.66    5.50
   3  -2   1   49.46    5.31
   3  -2   2   78.56    4.14
   3  -2   3   65.18    2.21
   3  -2   4  193.95    9.31
   3  -2   5   69.33    6.65
   3  -2   6   39.59    7.60
   3  -2   7   35.39    8.08
   3  -2   8   57.17   10.24
   3  -2   9   24.31    9.62
   3  -2  10    4.18    9.46
   3  -2  11   10.84   10.43
   3  -2  12   19.83   16.50
   3  -1 -13   34.47   18.81
   3  -1 -12   58.80   13.77
   3  -1 -11   67.11   12.95
   3  -1 -10   59.05    6.69
   3  -1  -9   60.88   17.95
   3  -1  -8   67.97   10.85
   3  -1  -7  292.59   33.77
   3  -1  -6   16.73    4.65
   3  -1  -5   24.21    4.73
   3  -1  -4   25.88    3.23
   3  -1  -3  137.57    6.39
   3  -1  -2  682.47   32.12
   3  -1  -1  255.34   10.32
   3  -1   0  227.31    7.38
   3  -1   1   84.93    5.61
   3  -1   2  137.66   10.47
   3  -1   3   97.79    9.97
   3  -1   4  165.86    9.56
   3  -1   5   75.21    7.79
   3  -1   6   57.59    6.71
   3  -1   7   62.34   14.58
   3  -1   8   72.44   16.78
   3  -1   9   56.46   13.35
   3  -1  10   41.93    8.61
   3  -1  11   24.39    9.89
   3  -1  12   15.38   15.89
   3   1 -12   30.11   10.39
   3   1 -11   47.72   14.18
   3   1 -10   26.65    7.72
   3   1  -9   73.58   10.98
   3   1  -8   34.00   11.17
   3   1  -7  302.13   29.46
   3   1  -6    7.77    2.27
   3   1  -5   28.19    8.62
   3   1  -4   30.82    4.55
   3   1  -3  151.46   13.91
   3   1  -2  654.22   35.71
   3   1  -1  277.67   15.98
   3   1   0  180.42    9.51
   3   1   1  118.93    3.99
   3   1   2  107.95    5.05
   3   1   3   97.66    7.45
   3   1   4  106.83    7.28
   3   1   5   63.10    5.23
   3   1   6   66.59   10.29
   3   1   7   83.32   11.20
   3   1   8   76.67   11.27
   3   1   9   70.38   12.17
   3   1  10   40.18    8.82
   3   1  11   15.13   12.57
   3   2 -12   16.75   14.08
   3   2 -11   21.55   12.36
   3   2 -10    9.61   11.52
   3   2  -9   27.19   11.44
   3   2  -8   10.16    9.60
   3   2  -7  229.64   16.54
   3   2  -6    6.28    9.19
   3   2  -5   13.36    6.10
   3   2  -4   29.32    4.18
   3   2  -3   80.05    5.02
   3   2  -2  243.16    9.12
   3   2  -1   69.65    5.09
   3   2   0   71.62    2.89
   3   2   1   67.51    4.55
   3   2   2   68.71    4.18
   3   2   3   80.36    4.68
   3   2   4  108.92    8.62
   3   2   5   77.21    9.28
   3   2   6   60.70   10.03
   3   2   7   52.12   10.96
   3   2   8   33.76   10.80
   3   2   9   41.44   12.65
   3   2  10   20.81   11.90
   3   2  11   25.74   13.85
   3   3 -12   72.65   18.81
   3   3 -11   29.37   10.12
   3   3 -10   13.52    9.14
   3   3  -9   42.44    9.19
   3   3  -8   56.19    9.76
   3   3  -7  259.77   12.58
   3   3  -6   32.85    8.07
   3   3  -5   70.15    5.21
   3   3  -4   93.88    5.20
   3   3  -3  164.22   10.94
   3   3  -2  297.95   10.64
   3   3  -1  178.23    8.30
   3   3   0  158.10    9.10
   3   3   1  123.89    3.00
   3   3   2  124.99    7.71
   3   3   3  138.00    5.62
   3   3   4  146.95    6.28
   3   3   5  131.12    7.17
   3   3   6   82.91   11.20
   3   3   7  112.06   11.42
   3   3   8   68.35   12.39
   3   3   9   76.55   13.19
   3   3  10   42.22   13.16
   3   3  11   30.10   14.08
   3   4 -11   16.46   15.95
   3   4 -10   13.79    9.84
   3   4  -9   49.22   10.30
   3   4  -8   52.87    9.52
   3   4  -7  185.63   24.46
   3   4  -6    8.69    7.40
   3   4  -5   14.21    7.19
   3   4  -4   25.76    7.27
   3   4  -3   66.92   13.80
   3   4  -2  192.86    9.89
   3   4  -1  142.87    9.04
   3   4   0  108.60    7.77
   3   4   1   78.07    8.24
   3   4   2   57.05    9.03
   3   4   3   42.41    4.48
   3   4   4   47.33    4.74
   3   4   5   35.81    6.48
   3   4   6   28.18    8.42
   3   4   7   47.52   10.02
   3   4   8   53.31   11.07
   3   4   9   53.24   12.35
   3   4  10   11.69   11.66
   3   4  11    7.65   12.45
   3   5 -10    2.21   10.18
   3   5  -9   11.38    9.77
   3   5  -8    8.64    9.34
   3   5  -7   71.93   10.00
   3   5  -6   16.85    8.21
   3   5  -5   15.06    7.59
   3   5  -4   25.67    7.79
   3   5  -3   24.02    7.51
   3   5  -2   32.12    7.31
   3   5  -1   36.40    7.46
   3   5   0   42.93    7.76
   3   5   1   10.14    6.68
   3   5   2   31.55    7.82
   3   5   3   47.81    8.01
   3   5   4   57.48    8.71
   3   5   5   26.16   12.01
   3   5   6   12.90   11.98
   3   6  -8   34.27   10.55
   3   6  -7   75.17   10.72
   3   6  -6   27.13    9.20
   3   6  -5   11.00    8.61
   3   6  -4   22.84    8.14
   3   6  -3   49.70   17.28
   3   6  -2   82.95   10.59
   3   6  -1   99.31    9.36
   3   6   0   60.45    8.74
   3   6   1   41.37    8.80
   3   6   2   37.99    8.20
   3   6   3   40.37    8.72
   3   6   4   46.03   14.80
   3   6   5   24.67   15.04
   3   7  -7   46.28   15.02
   3   7  -6   20.67    9.61
   3   7  -5    3.08    9.01
   3   7  -4    9.54    8.97
   3   7  -3   10.27    8.30
   3   7  -2   31.17   12.06
   3   7  -1   34.03    8.73
   3   7   0   28.96    8.61
   3   7   1   11.26    8.66
   3   7   2   43.30   22.96
   3   7   3   31.55   12.29
   3   7   4   28.87    9.55
   3   7   5   23.76   14.66
   3   8  -5    0.01   12.32
   3   8  -4    5.96   12.12
   3   8  -3    5.52   11.73
   3   8  -2    8.54   11.80
   4  -7  -6    4.55   15.43
   4  -7  -5    2.82   13.28
   4  -7  -4   11.87   13.97
   4  -7  -3   17.05   13.89
   4  -7  -2   22.32   13.74
   4  -7  -1   20.31   15.40
   4  -7   0    5.30   14.91
   4  -7   1    8.66   14.21
   4  -7   2   14.07   14.39
   4  -7   3   23.47   14.02
   4  -7   4   20.61   14.58
   4  -6  -9   16.39   16.26
   4  -6  -8   24.37   14.61
   4  -6  -7   63.97   11.25
   4  -6  -6   19.98    9.41
   4  -6  -5    6.54    9.08
   4  -6  -4    9.91   12.61
   4  -6  -3   27.25   12.25
   4  -6  -2   74.85   14.57
   4  -6  -1   64.75   14.01
   4  -6   0   50.18   13.55
   4  -6   1   30.47   14.50
   4  -6   2   48.33   13.45
   4  -6   3   34.36   12.99
   4  -6   4    6.86   13.93
   4  -6   5    1.93   14.76
   4  -6   6   15.96   15.19
   4  -5 -11    0.24   14.91
   4  -5 -10    0.93   14.47
   4  -5  -9    1.16    9.39
   4  -5  -8    5.42    8.87
   4  -5  -7   55.19    9.92
   4  -5  -6   23.16    8.87
   4  -5  -5   17.06    8.81
   4  -5  -4   21.06   10.84
   4  -5  -3   24.12   12.15
   4  -5  -2   16.68   11.43
   4  -5  -1   19.44   12.17
   4  -5   0   13.50   11.40
   4  -5   1   19.06   10.56
   4  -5   2   43.07   12.56
   4  -5   3   65.29   13.74
   4  -5   4   30.89   14.32
   4  -5   5   39.07   13.10
   4  -5   6   14.65   13.70
   4  -5   7   19.53   14.85
   4  -5   8   17.48   15.58
   4  -4 -11    4.98   12.83
   4  -4 -10    7.88    8.79
   4  -4  -9   34.99    8.98
   4  -4  -8   24.09    7.98
   4  -4  -7  104.19   16.99
   4  -4  -6   16.96    7.33
   4  -4  -5    3.64    7.58
   4  -4  -4    5.26    9.42
   4  -4  -3   26.18   10.40
   4  -4  -2   99.81   12.30
   4  -4  -1   69.64   12.33
   4  -4   0   52.95   11.07
   4  -4   1   55.65   13.12
   4  -4   2   22.97    9.79
   4  -4   3   29.52   12.29
   4  -4   4    8.89   11.81
   4  -4   5    7.43   12.11
   4  -4   6    4.34   13.40
   4  -4   7   52.74   15.81
   4  -4   8   41.78   14.87
   4  -4   9   46.28   15.90
   4  -3 -11    8.87   13.04
   4  -3 -10   10.90   16.29
   4  -3  -9   27.86    7.93
   4  -3  -8   53.29    6.43
   4  -3  -7  167.48    8.48
   4  -3  -6   86.19    6.05
   4  -3  -5   51.65    4.90
   4  -3  -4   71.36    9.56
   4  -3  -3   95.74    6.03
   4  -3  -2  112.76    8.09
   4  -3  -1  116.02    6.51
   4  -3   0   96.75   12.85
   4  -3   1  105.40   11.35
   4  -3   2  151.14    9.54
   4  -3   3  159.93   13.22
   4  -3   4  102.84    7.97
   4  -3   5   69.15    7.15
   4  -3   6   32.11    8.29
   4  -3   7  103.40    9.85
   4  -3   8   65.77   10.16
   4  -3   9   72.93   16.74
   4  -2 -11    0.73   10.89
   4  -2 -10    5.16    9.87
   4  -2  -9    7.37    5.64
   4  -2  -8   25.28    5.34
   4  -2  -7  132.60    7.29
   4  -2  -6   57.46    5.06
   4  -2  -5   22.56    4.97
   4  -2  -4   22.72    4.79
   4  -2  -3   30.43    5.59
   4  -2  -2   46.34    5.57
   4  -2  -1   52.61    6.13
   4  -2   0   48.66    5.47
   4  -2   1   23.67    9.69
   4  -2   2   96.02    5.00
   4  -2   3   78.17    2.91
   4  -2   4   47.77   10.44
   4  -2   5   22.88   12.42
   4  -2   6    7.25    6.63
   4  -2   7   78.75    9.54
   4  -2   8   42.02    8.90
   4  -2   9   47.61   10.28
   4  -2  10    9.06    9.67
   4  -2  11   33.10   16.49
   4  -1 -13    6.50   12.69
   4  -1 -12   39.53   10.32
   4  -1 -11    3.56    8.87
   4  -1 -10    4.54    6.56
   4  -1  -9   18.85    5.17
   4  -1  -8   41.12   12.37
   4  -1  -7  128.24   10.73
   4  -1  -6   34.64   10.48
   4  -1  -5    6.62    8.34
   4  -1  -4    5.00    5.03
   4  -1  -3   35.93    4.95
   4  -1  -2   75.40    5.91
   4  -1  -1   85.86    5.85
   4  -1   0   72.10    6.67
   4  -1   1   21.95    5.11
   4  -1   2   72.80   14.12
   4  -1   3   28.11    3.64
   4  -1   4   14.96    8.80
   4  -1   5    3.46    9.93
   4  -1   6    9.85   10.81
   4  -1   7  104.97   12.67
   4  -1   8   60.63   12.04
   4  -1   9   53.41    9.83
   4  -1  10    5.40    8.55
   4  -1  11   21.45   16.62
   4   1 -12   26.23   11.22
   4   1 -11    1.63   12.86
   4   1 -10    4.13    9.17
   4   1  -9   41.72   12.03
   4   1  -8   30.36    9.13
   4   1  -7   81.79   11.45
   4   1  -6   44.81   10.54
   4   1  -5    6.37    4.59
   4   1  -4    0.80    4.49
   4   1  -3   27.46    3.75
   4   1  -2   55.53    7.22
   4   1  -1  108.59    9.72
   4   1   0   91.39    9.85
   4   1   1    6.08    3.28
   4   1   2  127.95    6.96
   4   1   3   34.77    3.73
   4   1   4   25.52    4.24
   4   1   5    9.57    8.38
   4   1   6    6.72    9.48
   4   1   7  111.41   13.08
   4   1   8   89.16   12.97
   4   1   9   73.32   13.37
   4   1  10   23.91   13.16
   4   1  11   13.17    7.26
   4   2 -11    1.14   13.52
   4   2 -10    5.82   12.33
   4   2  -9   18.14   12.48
   4   2  -8   23.00   11.21
   4   2  -7   54.96   12.93
   4   2  -6   84.54    8.99
   4   2  -5   33.47    4.95
   4   2  -4   16.51    3.67
   4   2  -3   20.60    2.91
   4   2  -2   23.54    2.21
   4   2  -1   29.91    2.18
   4   2   0   32.84    3.61
   4   2   1    8.54    3.71
   4   2   2  142.69    5.83
   4   2   3   61.05    6.41
   4   2   4   58.02    4.77
   4   2   5   10.60    5.04
   4   2   6    2.92    9.20
   4   2   7   45.02   11.23
   4   2   8   29.57   11.23
   4   2   9   52.11   13.50
   4   2  10   26.52   12.55
   4   2  11   14.60   13.82
   4   3 -11   18.71   16.60
   4   3 -10   16.33   10.09
   4   3  -9   32.41   17.81
   4   3  -8   52.94   10.02
   4   3  -7   77.84    9.89
   4   3  -6  130.77   11.00
   4   3  -5   72.12    8.51
   4   3  -4   44.13    8.97
   4   3  -3   68.39    8.10
   4   3  -2   68.02   10.71
   4   3  -1   81.65    7.56
   4   3   0   76.59    8.16
   4   3   1    3.31    2.34
   4   3   2  231.83    6.83
   4   3   3  113.04    5.52
   4   3   4   98.61    6.37
   4   3   5   41.58    9.21
   4   3   6   12.58    8.22
   4   3   7   81.98   11.94
   4   3   8   56.57   11.94
   4   3   9   58.64   13.05
   4   3  10   36.75   13.20
   4   4 -10    4.27   15.81
   4   4  -9   29.89   13.34
   4   4  -8   31.86    9.66
   4   4  -7   29.81    9.26
   4   4  -6   19.81    8.51
   4   4  -5    1.37    7.90
   4   4  -4    5.69    8.18
   4   4  -3   17.97    7.99
   4   4  -2   36.80    7.54
   4   4  -1   38.98    7.76
   4   4   0   30.04    7.14
   4   4   1    2.29    7.02
   4   4   2   78.34    8.23
   4   4   3    7.64    6.70
   4   4   4    4.08    7.45
   4   4   5    7.50    9.81
   4   5  -8   13.81    9.86
   4   5  -7   21.94    9.98
   4   5  -6   56.76   10.61
   4   5  -5   56.18   16.60
   4   5  -4   10.47    8.46
   4   5  -3   29.47    8.28
   4   5  -2   18.95    7.83
   4   5  -1    4.65    7.72
   4   5   0    3.40    7.55
   4   5   1    5.36    7.21
   4   5   2   97.19    9.71
   4   5   3   59.54    9.09
   4   5   4   53.36    9.37
   4   5   5   18.71   12.26
   4   5   6    6.84   12.16
   4   6  -7   24.92   14.01
   4   6  -6   28.80    9.81
   4   6  -5   10.69    9.43
   4   6  -4    1.06    8.92
   4   6  -3   26.04    9.06
   4   6  -2   30.49    9.52
   4   6  -1   30.06    9.19
   4   6   0   24.21    8.53
   4   6   1    0.95    8.68
   4   6   2   69.94   10.06
   4   6   3   17.58    9.23
   4   6   4   11.18    8.99
   4   6   5    1.47   14.48
   4   6   6    6.69   14.66
   4   7  -5   18.10   13.43
   4   7  -4    0.74   12.10
   4   7  -3   18.18    9.69
   4   7  -2   20.91    9.39
   4   7  -1   12.92    9.00
   4   7   0    6.93    8.88
   4   7   1    0.90    8.93
   4   7   2   51.00   10.48
   4   7   3   18.88    9.58
   4   7   4    6.86   10.18
   4   7   5    3.35   16.21
   4   8  -2    2.96   13.22
   4   8  -1    2.52   12.72
   4   8   0    1.67   13.20
   5  -7  -1   16.09   16.22
   5  -6  -6   44.71   15.11
   5  -6  -5    8.71   15.22
   5  -6  -4   12.17   13.42
   5  -6  -3   20.81   14.34
   5  -6  -2   24.87   14.56
   5  -6  -1   31.89   13.89
   5  -6   0   11.87   12.93
   5  -6   1    9.32   14.60
   5  -6   2   48.48   16.42
   5  -6   3   34.41   16.70
   5  -6   4    0.09   16.70
   5  -5  -9   27.50   15.97
   5  -5  -8   21.97   10.38
   5  -5  -7   23.40   13.15
   5  -5  -6   54.81   15.07
   5  -5  -5   18.09   11.47
   5  -5  -4   18.66   12.29
   5  -5  -3   32.29   13.31
   5  -5  -2    9.77   12.09
   5  -5  -1    4.77   11.99
   5  -5   0    2.42   12.69
   5  -5   1    1.61   12.05
   5  -5   2   80.18   15.29
   5  -5   3   39.40   14.70
   5  -5   4   19.51   14.73
   5  -5   5   10.37   15.05
   5  -5   6    1.86   16.05
   5  -4  -9   25.37   14.30
   5  -4  -8   27.55    9.12
   5  -4  -7   17.57    8.70
   5  -4  -6   30.65   11.86
   5  -4  -5    7.69   11.20
   5  -4  -4    7.11   11.06
   5  -4  -3   21.16   11.02
   5  -4  -2   18.89   11.63
   5  -4  -1   30.05   11.25
   5  -4   0   42.16   12.23
   5  -4   1    2.10   11.40
   5  -4   2   74.38   14.33
   5  -4   3   17.55   11.64
   5  -4   4    1.40   12.51
   5  -4   5    3.87   12.82
   5  -4   6    8.11   10.14
   5  -4   7   37.10   15.31
   5  -3 -10   47.90   15.02
   5  -3  -9   44.95   13.98
   5  -3  -8   43.31    8.41
   5  -3  -7   23.63   11.03
   5  -3  -6  142.99   15.17
   5  -3  -5   88.01    7.29
   5  -3  -4   54.81    6.79
   5  -3  -3   78.02    7.07
   5  -3  -2   60.32    7.01
   5  -3  -1   37.34    7.42
   5  -3   0   36.43   10.97
   5  -3   1    0.38   10.28
   5  -3   2  228.90   16.99
   5  -3   3   82.72   14.15
   5  -3   4   60.02   13.27
   5  -3   5   16.05   13.79
   5  -3   6    9.14   13.25
   5  -3   7   52.12   16.64
   5  -3   8   14.33   15.76
   5  -2 -11   28.88   14.26
   5  -2 -10    9.99   12.16
   5  -2  -9   29.76    8.21
   5  -2  -8   40.38    8.18
   5  -2  -7   23.58    7.23
   5  -2  -6   93.85    8.05
   5  -2  -5   40.94    6.87
   5  -2  -4    9.37    5.83
   5  -2  -3   42.95    6.57
   5  -2  -2   36.67    6.20
   5  -2  -1   19.54    6.18
   5  -2   0   18.74    6.31
   5  -2   1    9.00    6.31
   5  -2   2  186.35   15.21
   5  -2   3   37.02   11.29
   5  -2   4   14.74   11.42
   5  -2   5    1.34   11.32
   5  -2   6   10.48   12.35
   5  -2   7   28.20   13.44
   5  -2   8   19.44   15.23
   5  -1 -12    9.71    6.79
   5  -1 -11   51.59   12.71
   5  -1 -10   35.30    8.75
   5  -1  -9   29.23   11.22
   5  -1  -8   25.52    6.90
   5  -1  -7   12.73    3.93
   5  -1  -6   42.08    6.81
   5  -1  -5   19.21    5.52
   5  -1  -4    8.99    5.86
   5  -1  -3   52.56    6.39
   5  -1  -2   59.41    8.94
   5  -1  -1   29.87    5.89
   5  -1   0   33.99    6.05
   5  -1   1   18.50    5.34
   5  -1   2  153.26    9.02
   5  -1   3   19.64    9.40
   5  -1   4    5.28   16.47
   5  -1   5    0.04   11.34
   5  -1   6   13.01    9.99
   5  -1   7   28.14   12.34
   5  -1   8    6.02    5.00
   5  -1   9   11.14   10.10
   5   1 -11   39.02   11.40
   5   1 -10   28.85   13.15
   5   1  -9   27.76   12.97
   5   1  -8   16.53    8.86
   5   1  -7   30.21    6.46
   5   1  -6   37.05    6.14
   5   1  -5   15.99    6.92
   5   1  -4    0.41    4.16
   5   1  -3   79.40    8.44
   5   1  -2   87.54    7.56
   5   1  -1   29.24    4.44
   5   1   0   32.00    4.17
   5   1   1   14.24    3.98
   5   1   2  176.17   17.14
   5   1   3   14.70    4.04
   5   1   4    3.49    5.98
   5   1   5    6.32    7.33
   5   1   6   17.97   10.21
   5   1   7   25.27   10.08
   5   1   8   38.90   11.96
   5   1   9   15.68   12.52
   5   1  10    1.73   13.93
   5   2 -10   28.19   17.75
   5   2  -9   23.66    9.92
   5   2  -8   24.94    9.59
   5   2  -7   55.54    9.95
   5   2  -6   43.26    9.40
   5   2  -5   47.52    8.71
   5   2  -4   12.11    8.45
   5   2  -3  118.07    9.44
   5   2  -2   72.72   17.48
   5   2  -1    9.34    7.15
   5   2   0    4.86    6.97
   5   2   1    3.35    4.24
   5   2   2  163.18    8.91
   5   2   3   41.13    4.99
   5   2   4    9.21    6.63
   5   2   5    0.16    8.46
   5   2   6    0.00    8.96
   5   2   7   10.57   10.51
   5   2   8    9.51   11.24
   5   2   9    4.31   11.84
   5   3  -9   33.45   10.97
   5   3  -8   22.80   10.54
   5   3  -7   90.20   11.05
   5   3  -6   60.21   10.32
   5   3  -5   79.41   10.51
   5   3  -4   45.72    8.78
   5   3  -3  150.73   11.28
   5   3  -2   77.56    9.04
   5   3  -1   24.28   12.45
   5   3   0   31.42    7.28
   5   3   1   30.41    7.99
   5   3   2  214.06   18.03
   5   3   3   77.50    8.51
   5   3   4   39.94   13.28
   5   4  -8   11.09   10.62
   5   4  -7   36.82   10.50
   5   4  -6    8.06    9.20
   5   4  -5   10.84    9.15
   5   4  -4    4.32    8.92
   5   4  -3   75.05   13.40
   5   4  -2   41.39    9.10
   5   4  -1   15.75   10.83
   5   4   0   22.82    8.30
   5   4   1   29.02    8.04
   5   4   2   64.71    8.92
   5   4   3   21.35    8.10
   5   4   4   11.79   12.42
   5   5  -6    7.75   10.04
   5   5  -5   38.69   20.41
   5   5  -4   13.24    9.56
   5   5  -3   60.70   15.80
   5   5  -2   34.32   13.74
   5   5  -1   14.48   18.84
   5   5   0    0.63    9.10
   5   5   1    8.76    8.52
   5   5   2   59.30   10.45
   5   5   3   35.33    9.63
   5   5   4   26.95   14.83
   5   6  -4    8.13   10.13
   5   6  -3   43.87   10.81
   5   6  -2   26.10   10.03
   5   6  -1   28.42    9.94
   5   6   0   13.06   10.86
   5   6   1   26.42    9.99
   5   6   2   45.59   10.34
   5   6   3   33.79   10.41
   5   6   4   26.28   14.79
   6  -5  -5   10.79   15.26
   6  -5  -4    0.57   14.32
   6  -5  -3   39.46   15.66
   6  -5  -2   31.57   13.98
   6  -5  -1    6.57   15.02
   6  -5   0    0.35   14.98
   6  -5   1    3.79   13.99
   6  -5   2   71.77   17.12
   6  -5   3   16.44   15.14
   6  -4  -7   26.50   14.60
   6  -4  -6   25.05   13.93
   6  -4  -5   15.66   12.95
   6  -4  -4   24.89   13.91
   6  -4  -3   59.43   13.41
   6  -4  -2   47.06   14.12
   6  -4  -1   44.45   13.74
   6  -4   0   22.14   12.89
   6  -4   1   40.17   13.77
   6  -4   2   87.28   16.25
   6  -4   3   29.10   13.72
   6  -4   4   15.23   14.21
   6  -4   5   20.19   15.30
   6  -3  -9   21.81   13.76
   6  -3  -8    7.75   12.87
   6  -3  -7   31.05   12.98
   6  -3  -6   33.22   12.65
   6  -3  -5   35.10   13.20
   6  -3  -4   56.36   12.37
   6  -3  -3  111.08   15.79
   6  -3  -2   67.50   13.28
   6  -3  -1   32.31    7.97
   6  -3   0   27.81   12.48
   6  -3   1   45.11   13.82
   6  -3   2  104.81   14.82
   6  -3   3   57.37   14.60
   6  -3   4   55.11   14.92
   6  -3   5   30.23   14.34
   6  -3   6   39.15   15.65
   6  -2 -10    6.14   12.85
   6  -2  -9   27.56   12.82
   6  -2  -8    7.18   11.21
   6  -2  -7   18.56   11.32
   6  -2  -6   10.82    7.11
   6  -2  -5   14.16    6.96
   6  -2  -4   24.24    7.45
   6  -2  -3   71.44    8.10
   6  -2  -2   33.23    7.54
   6  -2  -1   17.03    7.12
   6  -2   0   25.34    7.79
   6  -2   1   44.29   11.48
   6  -2   2   75.60   13.48
   6  -2   3   14.99   11.57
   6  -2   4   18.44   12.58
   6  -2   5   12.47   13.00
   6  -2   6   17.40   13.60
   6  -2   7    5.48   14.43
   6  -1 -10   17.41    7.27
   6  -1  -9   28.94    7.92
   6  -1  -8   11.43    5.44
   6  -1  -7   19.67    6.44
   6  -1  -6   10.97    6.29
   6  -1  -5   28.23    6.20
   6  -1  -4   39.31    6.58
   6  -1  -3   93.11    8.37
   6  -1  -2   52.98    8.42
   6  -1  -1   54.99   11.03
   6  -1   0   59.71    7.19
   6  -1   1   54.41    8.14
   6  -1   2   47.73   10.40
   6  -1   3   23.78    9.64
   6  -1   4   32.85   10.99
   6  -1   5   35.40   12.15
   6  -1   6   33.50   12.43
   6  -1   7   33.73   12.14
   6  -1   8   18.67   13.24
   6   1  -9   22.93   14.97
   6   1  -8   10.11   10.42
   6   1  -7   23.70   10.87
   6   1  -6   17.14   12.04
   6   1  -5   35.48   12.22
   6   1  -4   47.61   14.41
   6   1  -3   66.69    9.07
   6   1  -2   66.83   18.06
   6   1  -1   76.86   16.21
   6   1   0   89.17   12.88
   6   1   1   51.35   12.82
   6   1   2   48.77   12.96
   6   1   3   33.63   11.77
   6   2  -8    2.22   10.42
   6   2  -7    7.54    9.90
   6   2  -6   12.77    9.63
   6   2  -5   11.71    9.32
   6   2  -4   32.13   10.73
   6   2  -3   59.20    9.60
   6   2  -2   37.87   14.05
   6   2  -1   26.47    8.15
   6   2   0   25.97    7.83
   6   2   1   15.78    7.73
   6   2   2   17.53   14.01
   6   2   3   17.17   13.93
   6   3  -7   19.47   10.51
   6   3  -6   28.74    9.86
   6   3  -5   37.90   10.47
   6   3  -4   46.20   10.14
   6   3  -3   55.02   10.31
   6   3  -2   54.96    9.54
   6   3  -1   46.76    9.76
   6   3   0   49.46   17.86
   6   3   1   31.79    8.95
   6   3   2   29.61   14.40
   6   3   3   32.10   14.74
   6   3   4   51.35   15.45
   6   4  -6   16.38   15.91
   6   4  -5    9.84   10.41
   6   4  -4   28.26   13.34
   6   4  -3   18.68    9.42
   6   4  -2   60.31   10.61
   6   4  -1   45.94    9.65
   6   4   0   58.20   10.43
   6   4   1   13.87    8.57
   6   4   2   25.76   15.12
   6   4   3   26.66   16.39
   6   5  -3    4.27   14.22
   6   5  -2    1.97    9.94
   6   5  -1    6.14    9.76
   6   5   0   10.53    9.27
   6   5   1    1.51   12.56
   7  -4  -5   10.48   13.98
   7  -4  -4   21.28   14.62
   7  -4  -3   11.45   14.30
   7  -4  -2   18.48   14.55
   7  -4  -1   17.58   14.41
   7  -4   0   39.80   15.40
   7  -4   1   23.47   15.97
   7  -4   2    3.03   15.83
   7  -3  -7   13.54   14.20
   7  -3  -6   26.66   13.45
   7  -3  -5   15.26   13.88
   7  -3  -4   19.66   13.39
   7  -3  -3   10.05   12.39
   7  -3  -2   24.86   13.94
   7  -3  -1   13.71   12.92
   7  -3   0   27.73   13.83
   7  -3   1   22.13   13.46
   7  -3   2   11.09   13.82
   7  -3   3   25.12   14.60
   7  -3   4   51.62   16.76
   7  -2  -8    1.14   13.60
   7  -2  -7    0.12   12.35
   7  -2  -6    1.97   12.77
   7  -2  -5    9.07   12.05
   7  -2  -4    0.66   11.66
   7  -2  -3    2.29    7.74
   7  -2  -2   12.01    8.04
   7  -2  -1    8.24    7.99
   7  -2   0   19.55    8.72
   7  -2   1    5.98   12.13
   7  -2   2   15.86   13.88
   7  -2   3    8.72   12.88
   7  -2   5    0.40   14.64
   7  -1  -7    7.82   10.36
   7  -1  -6   10.06    5.56
   7  -1  -5   11.79   10.61
   7  -1  -4   12.66    8.97
   7  -1  -3    6.82   10.65
   7  -1  -2   15.00   10.85
   7  -1  -1   12.54    9.57
   7  -1   0   24.40   11.21
   7  -1   1    9.16   12.20
   7  -1   4   35.57   13.59
   7  -1   5    7.18   18.37
   7  -1   6   21.93   15.34
   7   1  -7   13.65   14.03
   7   1  -6   12.14   22.29
   7   1  -5   19.77    9.52
   7   1  -4   16.07    8.96
   7   1  -3    3.20    6.18
   7   1  -2   13.04    8.07
   7   1  -1    8.43   11.43
   7   1   0   34.60   14.60
   7   1   1   22.29   12.02
   7   1   2   14.43   12.83
   7   1   3   13.75   14.95
   7   2  -6    0.20   15.76
   7   2  -5    2.97   10.54
   7   2  -4    2.29    9.62
   7   2  -3    6.72    9.50
   7   2  -2   10.96    9.69
   7   2  -1    9.90   14.06
   7   2   0   22.12   14.98
   7   2   1    7.82   14.04
   7   2   2   13.58   15.56
   7   3  -4    2.81   15.39
   7   3  -3    2.72   14.90
   7   3  -2    8.34   12.68
   7   4  -2    8.13   14.00
   7   4  -1   10.39   13.18
   8  -1  -3    0.69   13.75
   8  -1  -2    0.01   13.10
   8  -1  -1    0.16    5.21
   8  -1   0   10.97   10.65
   0   0   0    0.00    0.00
;
_shelx_hkl_checksum              64582
_shelx_shelxl_version_number     2014/7
_olex2_submission_special_instructions 'No special instructions were received'
loop_
_space_group_symop_operation_xyz
'x, y, z'
loop_
_atom_site_label
_atom_site_type_symbol
_atom_site_fract_x
_atom_site_fract_y
_atom_site_fract_z
_atom_site_U_iso_or_equiv
_atom_site_adp_type
_atom_site_occupancy
_atom_site_site_symmetry_order
_atom_site_calc_flag
_atom_site_refinement_flags_posn
_atom_site_refinement_flags_adp
Co1 Co 0.00074(17) 0.00037(16) 0.00088(14) 0.0164(4) Uani 1 1 d . .
O1W O 0.3376(11) 0.0250(9) -0.0217(7) 0.0213(15) Uani 1 1 d . U
H1WA H 0.4228 0.0539 0.0472 0.032 Uiso 1 1 d GR .
H1WB H 0.3778 -0.0501 -0.0884 0.032 Uiso 1 1 d GR .
N2 N 0.000(2) 0.6851(14) -0.0051(12) 0.019(2) Uani 1 1 d . U
C14 C 0.1342(19) 0.6115(13) 0.1063(10) 0.026(2) Uani 1 1 d . U
H14A H 0.0768 0.6551 0.1821 0.031 Uiso 1 1 calc R .
H14B H 0.2873 0.6623 0.1063 0.031 Uiso 1 1 calc R .
N1 N -0.0024(19) 0.3168(12) -0.0027(10) 0.011(2) Uani 1 1 d . U
C9 C 0.1067(19) 0.4043(13) -0.1151(10) 0.024(2) Uani 1 1 d . U
H9A H 0.2626 0.3756 -0.1086 0.029 Uiso 1 1 calc R .
H9B H 0.0343 0.3488 -0.1925 0.029 Uiso 1 1 calc R .
C13 C 0.1312(19) 0.3997(13) 0.1093(10) 0.025(2) Uani 1 1 d . U
H13A H 0.2829 0.3605 0.1120 0.030 Uiso 1 1 calc R .
H13B H 0.0687 0.3530 0.1851 0.030 Uiso 1 1 calc R .
C10 C 0.0909(19) 0.6114(13) -0.1207(10) 0.025(2) Uani 1 1 d . U
H10A H -0.0057 0.6439 -0.1949 0.031 Uiso 1 1 calc R .
H10B H 0.2378 0.6717 -0.1285 0.031 Uiso 1 1 calc R .
C11 C -0.2309(17) 0.3817(13) -0.0118(10) 0.023(2) Uani 1 1 d . U
H11A H -0.3096 0.3251 0.0558 0.028 Uiso 1 1 calc R .
H11B H -0.3103 0.3409 -0.0914 0.028 Uiso 1 1 calc R .
C12 C -0.228(2) 0.5965(15) -0.0029(13) 0.040(3) Uani 1 1 d . U
H12A H -0.3236 0.6446 -0.0730 0.048 Uiso 1 1 calc R .
H12B H -0.2874 0.6305 0.0746 0.048 Uiso 1 1 calc R .
O1 O 0.0718(13) 0.0019(9) 0.1972(7) 0.0169(17) Uani 1 1 d . U
O2 O -0.2759(11) -0.0209(9) 0.1282(7) 0.0228(16) Uani 1 1 d . U
C6 C 0.0000(19) 0.0235(14) 0.4456(11) 0.023(3) Uani 1 1 d . U
H6 H 0.1436 0.0496 0.4226 0.028 Uiso 1 1 calc R .
C7 C -0.1245(17) -0.0080(12) 0.2200(9) 0.018(2) Uani 1 1 d . U
C1 C -0.1782(16) -0.0109(13) 0.3560(9) 0.019(2) Uani 1 1 d . U
C2 C -0.3926(18) -0.0507(13) 0.3911(10) 0.025(2) Uani 1 1 d . U
H2 H -0.5112 -0.0723 0.3293 0.030 Uiso 1 1 calc R .
C4 C -0.2556(18) -0.0279(13) 0.6055(10) 0.024(2) Uani 1 1 d . U
C3 C -0.4313(17) -0.0586(12) 0.5175(9) 0.019(2) Uani 1 1 d . U
H3 H -0.5745 -0.0844 0.5411 0.023 Uiso 1 1 calc R .
C5 C -0.043(2) 0.0179(16) 0.5737(12) 0.032(3) Uani 1 1 d . U
H5 H 0.0723 0.0451 0.6365 0.039 Uiso 1 1 calc R .
O3 O -0.4922(15) -0.0719(12) 0.7629(8) 0.049(2) Uani 1 1 d . U
C8 C -0.3001(17) -0.0317(13) 0.7438(9) 0.018(2) Uani 1 1 d . U
O4 O -0.1368(13) -0.0014(10) 0.8187(7) 0.0205(18) Uani 1 1 d . U
loop_
_atom_site_aniso_label
_atom_site_aniso_U_11
_atom_site_aniso_U_22
_atom_site_aniso_U_33
_atom_site_aniso_U_23
_atom_site_aniso_U_13
_atom_site_aniso_U_12
Co1 0.0180(7) 0.0244(7) 0.0065(5) 0.0031(4) -0.0005(4) 0.0020(4)
O1W 0.021(3) 0.022(2) 0.020(2) -0.003(2) -0.002(2) 0.002(2)
N2 0.020(3) 0.020(3) 0.018(3) 0.0004(13) 0.0022(14) 0.0008(13)
C14 0.026(3) 0.026(3) 0.026(3) 0.0000(14) 0.0016(14) 0.0020(14)
N1 0.011(2) 0.011(2) 0.010(2) -0.0002(13) 0.0007(13) 0.0002(13)
C9 0.024(3) 0.024(3) 0.024(3) 0.0002(14) 0.0021(14) 0.0009(14)
C13 0.025(3) 0.025(3) 0.025(3) 0.0003(14) 0.0012(14) 0.0014(14)
C10 0.026(3) 0.026(3) 0.025(3) -0.0002(14) 0.0030(14) 0.0014(14)
C11 0.023(3) 0.023(3) 0.024(3) -0.0002(14) 0.0024(14) 0.0012(14)
C12 0.040(3) 0.039(3) 0.040(3) 0.0004(14) 0.0036(14) 0.0020(14)
O1 0.017(2) 0.017(2) 0.016(2) 0.0001(13) 0.0021(13) 0.0003(13)
O2 0.024(2) 0.0233(19) 0.0214(19) 0.0009(13) 0.0022(13) 0.0022(13)
C6 0.022(3) 0.024(3) 0.023(3) 0.0000(14) 0.0019(14) 0.0018(14)
C7 0.018(2) 0.018(2) 0.018(2) 0.0000(13) 0.0018(14) 0.0009(14)
C1 0.019(2) 0.019(2) 0.018(2) 0.0002(13) 0.0030(14) 0.0018(14)
C2 0.024(3) 0.025(3) 0.025(3) 0.0000(14) 0.0023(14) 0.0015(14)
C4 0.024(3) 0.024(3) 0.024(3) 0.0005(14) 0.0023(14) 0.0015(14)
C3 0.019(2) 0.020(2) 0.019(2) -0.0001(13) 0.0029(14) 0.0015(14)
C5 0.032(3) 0.033(3) 0.032(3) -0.0001(14) 0.0026(14) 0.0025(14)
O3 0.047(3) 0.056(3) 0.044(3) 0.000(2) 0.006(2) 0.004(2)
C8 0.018(2) 0.019(2) 0.019(2) -0.0001(13) 0.0016(14) 0.0015(14)
O4 0.020(2) 0.021(2) 0.020(2) -0.0004(13) 0.0022(13) 0.0003(13)
loop_
_atom_type_symbol
_atom_type_description
_atom_type_scat_dispersion_real
_atom_type_scat_dispersion_imag
_atom_type_scat_source
C C 0.0033 0.0016 'International Tables Vol C Tables 4.2.6.8 and 6.1.1.4'
H H 0.0000 0.0000 'International Tables Vol C Tables 4.2.6.8 and 6.1.1.4'
Co Co 0.3494 0.9721 'International Tables Vol C Tables 4.2.6.8 and 6.1.1.4'
N N 0.0061 0.0033 'International Tables Vol C Tables 4.2.6.8 and 6.1.1.4'
O O 0.0106 0.0060 'International Tables Vol C Tables 4.2.6.8 and 6.1.1.4'
loop_
_geom_angle_atom_site_label_1
_geom_angle_atom_site_label_2
_geom_angle_atom_site_label_3
_geom_angle
_geom_angle_site_symmetry_1
_geom_angle_site_symmetry_3
O1W Co1 N2 91.0(4) . 1_545
O1W Co1 N1 89.0(3) . .
O1W Co1 O1 90.5(3) . .
O1W Co1 O2 149.7(3) . .
N2 Co1 N1 177.4(6) 1_545 .
N2 Co1 O2 90.2(3) 1_545 .
N1 Co1 O2 91.1(3) . .
O1 Co1 N2 91.8(4) . 1_545
O1 Co1 N1 90.8(3) . .
O1 Co1 O2 59.3(3) . .
O4 Co1 O1W 101.7(3) 1_554 .
O4 Co1 N2 89.0(4) 1_554 1_545
O4 Co1 N1 88.4(3) 1_554 .
O4 Co1 O1 167.8(3) 1_554 .
O4 Co1 O2 108.6(3) 1_554 .
Co1 O1W H1WA 114.2 . .
Co1 O1W H1WB 113.4 . .
H1WA O1W H1WB 125.3 . .
C14 N2 Co1 110.9(8) . 1_565
C14 N2 C10 107.5(10) . .
C14 N2 C12 106.4(10) . .
C10 N2 Co1 113.7(7) . 1_565
C12 N2 Co1 111.4(8) . 1_565
C12 N2 C10 106.5(10) . .
N2 C14 H14A 109.0 . .
N2 C14 H14B 109.0 . .
N2 C14 C13 112.9(8) . .
H14A C14 H14B 107.8 . .
C13 C14 H14A 109.0 . .
C13 C14 H14B 109.0 . .
C9 N1 Co1 112.4(6) . .
C13 N1 Co1 110.8(7) . .
C13 N1 C9 104.6(9) . .
C13 N1 C11 110.3(9) . .
C11 N1 Co1 112.2(7) . .
C11 N1 C9 106.3(9) . .
N1 C9 H9A 109.3 . .
N1 C9 H9B 109.3 . .
H9A C9 H9B 107.9 . .
C10 C9 N1 111.7(8) . .
C10 C9 H9A 109.3 . .
C10 C9 H9B 109.3 . .
C14 C13 H13A 109.4 . .
C14 C13 H13B 109.4 . .
N1 C13 C14 111.2(8) . .
N1 C13 H13A 109.4 . .
N1 C13 H13B 109.4 . .
H13A C13 H13B 108.0 . .
N2 C10 H10A 109.3 . .
N2 C10 H10B 109.3 . .
C9 C10 N2 111.8(8) . .
C9 C10 H10A 109.3 . .
C9 C10 H10B 109.3 . .
H10A C10 H10B 107.9 . .
N1 C11 H11A 109.4 . .
N1 C11 H11B 109.4 . .
N1 C11 C12 111.1(8) . .
H11A C11 H11B 108.0 . .
C12 C11 H11A 109.4 . .
C12 C11 H11B 109.4 . .
N2 C12 C11 111.7(9) . .
N2 C12 H12A 109.3 . .
N2 C12 H12B 109.3 . .
C11 C12 H12A 109.3 . .
C11 C12 H12B 109.3 . .
H12A C12 H12B 107.9 . .
C7 O1 Co1 95.2(6) . .
C7 O2 Co1 86.9(6) . .
C1 C6 H6 121.1 . .
C1 C6 C5 117.7(9) . .
C5 C6 H6 121.1 . .
O1 C7 O2 118.6(9) . .
O1 C7 C1 119.2(9) . .
O2 C7 C1 122.2(9) . .
C6 C1 C7 116.1(9) . .
C6 C1 C2 120.8(9) . .
C2 C1 C7 123.0(9) . .
C1 C2 H2 119.7 . .
C3 C2 C1 120.7(9) . .
C3 C2 H2 119.7 . .
C3 C4 C5 122.2(11) . .
C3 C4 C8 118.2(9) . .
C5 C4 C8 119.5(10) . .
C2 C3 H3 120.8 . .
C4 C3 C2 118.5(10) . .
C4 C3 H3 120.8 . .
C6 C5 H5 120.0 . .
C4 C5 C6 120.1(10) . .
C4 C5 H5 120.0 . .
O3 C8 C4 115.0(9) . .
O3 C8 O4 129.5(10) . .
O4 C8 C4 115.4(9) . .
C8 O4 Co1 148.6(7) . 1_556
loop_
_geom_bond_atom_site_label_1
_geom_bond_atom_site_label_2
_geom_bond_distance
_geom_bond_site_symmetry_2
Co1 O1W 2.065(7) .
Co1 N2 2.239(10) 1_545
Co1 N1 2.247(9) .
Co1 O1 2.093(7) .
Co1 O2 2.247(7) .
Co1 O4 2.034(8) 1_554
O1W H1WA 0.8724 .
O1W H1WB 0.9519 .
N2 Co1 2.239(10) 1_565
N2 C14 1.479(17) .
N2 C10 1.506(16) .
N2 C12 1.480(18) .
C14 H14A 0.9700 .
C14 H14B 0.9700 .
C14 C13 1.503(13) .
N1 C9 1.530(16) .
N1 C13 1.479(16) .
N1 C11 1.474(16) .
C9 H9A 0.9700 .
C9 H9B 0.9700 .
C9 C10 1.479(13) .
C13 H13A 0.9700 .
C13 H13B 0.9700 .
C10 H10A 0.9700 .
C10 H10B 0.9700 .
C11 H11A 0.9700 .
C11 H11B 0.9700 .
C11 C12 1.528(14) .
C12 H12A 0.9700 .
C12 H12B 0.9700 .
O1 C7 1.229(11) .
O2 C7 1.271(11) .
C6 H6 0.9300 .
C6 C1 1.377(14) .
C6 C5 1.414(15) .
C7 C1 1.514(14) .
C1 C2 1.393(14) .
C2 H2 0.9300 .
C2 C3 1.388(14) .
C4 C3 1.354(14) .
C4 C5 1.376(15) .
C4 C8 1.522(14) .
C3 H3 0.9300 .
C5 H5 0.9300 .
O3 C8 1.212(12) .
C8 O4 1.216(12) .
O4 Co1 2.034(8) 1_556
loop_
_geom_torsion_atom_site_label_1
_geom_torsion_atom_site_label_2
_geom_torsion_atom_site_label_3
_geom_torsion_atom_site_label_4
_geom_torsion
_geom_torsion_site_symmetry_1
_geom_torsion_site_symmetry_4
Co1 N2 C14 C13 177.6(7) 1_565 .
Co1 N2 C10 C9 174.8(7) 1_565 .
Co1 N2 C12 C11 177.9(7) 1_565 .
Co1 N1 C9 C10 176.4(7) . .
Co1 N1 C13 C14 178.8(6) . .
Co1 N1 C11 C12 175.2(7) . .
Co1 O1 C7 O2 2.3(9) . .
Co1 O1 C7 C1 -179.7(7) . .
Co1 O2 C7 O1 -2.2(8) . .
Co1 O2 C7 C1 179.9(8) . .
N2 C14 C13 N1 1.3(11) . .
C14 N2 C10 C9 51.6(12) . .
C14 N2 C12 C11 -61.1(12) . .
N1 C9 C10 N2 7.8(11) . .
N1 C11 C12 N2 7.8(11) . .
C9 N1 C13 C14 57.4(11) . .
C9 N1 C11 C12 -61.6(10) . .
C13 N1 C9 C10 -63.3(11) . .
C13 N1 C11 C12 51.2(11) . .
C10 N2 C14 C13 -57.5(12) . .
C10 N2 C12 C11 53.4(12) . .
C11 N1 C9 C10 53.4(11) . .
C11 N1 C13 C14 -56.5(12) . .
C12 N2 C14 C13 56.3(12) . .
C12 N2 C10 C9 -62.2(12) . .
O1 C7 C1 C6 8.4(13) . .
O1 C7 C1 C2 -169.8(9) . .
O2 C7 C1 C6 -173.6(8) . .
O2 C7 C1 C2 8.1(14) . .
C6 C1 C2 C3 -0.7(14) . .
C7 C1 C2 C3 177.5(9) . .
C1 C6 C5 C4 2.4(14) . .
C1 C2 C3 C4 -0.4(14) . .
C4 C8 O4 Co1 -169.7(9) . 1_556
C3 C4 C5 C6 -3.7(15) . .
C3 C4 C8 O3 3.5(13) . .
C3 C4 C8 O4 -179.3(8) . .
C5 C6 C1 C7 -178.7(9) . .
C5 C6 C1 C2 -0.3(14) . .
C5 C4 C3 C2 2.6(14) . .
C5 C4 C8 O3 179.4(9) . .
C5 C4 C8 O4 -3.3(14) . .
O3 C8 O4 Co1 7(2) . 1_556
C8 C4 C3 C2 178.5(8) . .
C8 C4 C5 C6 -179.5(9) . .
loop_
_smtbx_masks_void_nr
_smtbx_masks_void_average_x
_smtbx_masks_void_average_y
_smtbx_masks_void_average_z
_smtbx_masks_void_volume
_smtbx_masks_void_count_electrons
1 -0.314 0.475 0.496 137.5 52.7
