#------------------------------------------------------------------------------
#$Date: 2019-11-24 04:12:18 +0200 (Sun, 24 Nov 2019) $
#$Revision: 236652 $
#$URL: file:///home/coder/svn-repositories/cod/cif/8/00/03/8000364.cif $
#------------------------------------------------------------------------------
#
# This file is available in the Crystallography Open Database (COD),
# http://www.crystallography.net/
#
# All data on this site have been placed in the public domain by the
# contributors.
#
data_8000364
loop_
_publ_author_name
'Andrzejewski, Micha\/l'
'Katrusiak, Andrzej'
_publ_section_title
;
 Piezochromic Porous Metal-Organic Framework.
;
_journal_issue                   1
_journal_name_full               'The journal of physical chemistry letters'
_journal_page_first              279
_journal_page_last               284
_journal_paper_doi               10.1021/acs.jpclett.6b02458
_journal_volume                  8
_journal_year                    2017
_chemical_formula_moiety         'C14 H18 Co N2 O5'
_chemical_formula_sum            'C14 H18 Co N2 O5'
_chemical_formula_weight         353.23
_chemical_name_common            AMU1
_chemical_name_systematic
;
Co(1,4-benzenedicarboxylate)(1,4-diazabicyclo[2.2.2]octane)H2O
;
_space_group_crystal_system      triclinic
_space_group_IT_number           1
_space_group_name_Hall           'P 1'
_space_group_name_H-M_alt        'P 1'
_atom_sites_solution_hydrogens   mixed
_atom_sites_solution_primary     direct
_audit_creation_date             2016-07-12
_audit_creation_method
;
Olex2 1.2
(compiled 2016.02.19 svn.r3266 for OlexSys, GUI svn.r5155)
;
_cell_angle_alpha                89.484(6)
_cell_angle_beta                 95.509(6)
_cell_angle_gamma                93.428(6)
_cell_formula_units_Z            1
_cell_length_a                   6.0405(5)
_cell_length_b                   7.0949(5)
_cell_length_c                   10.6576(8)
_cell_measurement_reflns_used    3739
_cell_measurement_temperature    200(2)
_cell_measurement_theta_max      58.214
_cell_measurement_theta_min      5.752
_cell_volume                     453.82(6)
_computing_molecular_graphics    'Olex2 (Dolomanov et al., 2009)'
_computing_publication_material  'Olex2 (Dolomanov et al., 2009)'
_computing_structure_refinement  'ShelXL (Sheldrick, 2015)'
_computing_structure_solution    'ShelXS (Sheldrick, 2008)'
_diffrn_ambient_temperature      200(2)
_diffrn_measured_fraction_theta_full 0.914
_diffrn_measured_fraction_theta_max 0.821
_diffrn_measurement_device_type  'multiwire proportional'
_diffrn_measurement_method       'phi and omega scans'
_diffrn_radiation_monochromator  graphite
_diffrn_radiation_type           MoK\a
_diffrn_radiation_wavelength     0.71073
_diffrn_reflns_av_R_equivalents  0.0682
_diffrn_reflns_av_unetI/netI     0.1393
_diffrn_reflns_Laue_measured_fraction_full 0.914
_diffrn_reflns_Laue_measured_fraction_max 0.821
_diffrn_reflns_limit_h_max       7
_diffrn_reflns_limit_h_min       -8
_diffrn_reflns_limit_k_max       9
_diffrn_reflns_limit_k_min       -9
_diffrn_reflns_limit_l_max       13
_diffrn_reflns_limit_l_min       -13
_diffrn_reflns_number            6363
_diffrn_reflns_point_group_measured_fraction_full 0.914
_diffrn_reflns_point_group_measured_fraction_max 0.821
_diffrn_reflns_theta_full        26.000
_diffrn_reflns_theta_max         29.107
_diffrn_reflns_theta_min         2.876
_exptl_absorpt_coefficient_mu    0.966
_exptl_absorpt_correction_T_max  0.908
_exptl_absorpt_correction_T_min  0.891
_exptl_absorpt_correction_type   multi-scan
_exptl_absorpt_process_details
;
Data were collected and reduced by program CrysAlisPro, 
and SCALE3 ABSPACK was used for absorption correction
;
_exptl_crystal_colour            purple
_exptl_crystal_density_diffrn    1.292
_exptl_crystal_description       plate
_exptl_crystal_F_000             183
_exptl_crystal_size_max          0.3
_exptl_crystal_size_mid          0.1
_exptl_crystal_size_min          0.1
_refine_diff_density_max         0.490
_refine_diff_density_min         -0.466
_refine_diff_density_rms         0.089
_refine_ls_abs_structure_details
;
 Refined as a perfect inversion twin.
;
_refine_ls_abs_structure_Flack   0.5
_refine_ls_extinction_method     none
_refine_ls_goodness_of_fit_ref   0.998
_refine_ls_hydrogen_treatment    constr
_refine_ls_matrix_type           full
_refine_ls_number_parameters     200
_refine_ls_number_reflns         3739
_refine_ls_number_restraints     75
_refine_ls_restrained_S_all      0.991
_refine_ls_R_factor_all          0.0799
_refine_ls_R_factor_gt           0.0612
_refine_ls_shift/su_max          0.000
_refine_ls_shift/su_mean         0.000
_refine_ls_structure_factor_coef Fsqd
_refine_ls_weighting_details
'w=1/[\s^2^(Fo^2^)+(0.0659P)^2^] where P=(Fo^2^+2Fc^2^)/3'
_refine_ls_weighting_scheme      calc
_refine_ls_wR_factor_gt          0.1417
_refine_ls_wR_factor_ref         0.1480
_reflns_Friedel_coverage         1.000
_reflns_Friedel_fraction_full    0.914
_reflns_Friedel_fraction_max     0.821
_reflns_number_gt                2757
_reflns_number_total             3739
_reflns_threshold_expression     'I > 2\s(I)'
_cod_data_source_file            jz6b02458_si_004.cif
_cod_data_source_block           200K_P1
_cod_database_code               8000364
_shelx_space_group_comment
;
The symmetry employed for this shelxl refinement is uniquely defined
by the following loop, which should always be used as a source of
symmetry information in preference to the above space-group names.
They are only intended as comments.
;
_olex2_refinement_description
;
1. Fixed Uiso
 At 1.2 times of:
  All C(H) groups, All C(H,H) groups
 At 1.5 times of:
  All O(H,H) groups
2. Uiso/Uaniso restraints and constraints
Uanis(O2) \\sim Ueq, Uanis(O1) \\sim Ueq, Uanis(C5) \\sim Ueq, Uanis(C6) \\sim
Ueq, Uanis(C7) \\sim Ueq, Uanis(C1) \\sim Ueq, Uanis(O3) \\sim Ueq, Uanis(C4)
\\sim Ueq, Uanis(C2) \\sim Ueq, Uanis(C8) \\sim Ueq, Uanis(C3) \\sim Ueq,
Uanis(O4) \\sim Ueq: with sigma of 0.001 and sigma for terminal atoms of 0.002
3.a Rotating group:
 O1W(H1WA,H1WB)
3.b Secondary CH2 refined with riding coordinates:
 C11(H11A,H11B), C10(H10A,H10B), C14(H14A,H14B), C12(H12A,H12B), C9(H9A,H9B),
 C13(H13A,H13B)
3.c Aromatic/amide H refined with riding coordinates:
 C5(H5), C6(H6), C2(H2), C3(H3)
;
_shelx_hkl_file
;
  -8  -1   0   17.17   13.64
  -8  -1   1    8.94   14.18
  -8  -1   2    8.12   14.04
  -8  -1   3    6.76   13.92
  -7  -4   0   26.13   15.83
  -7  -4   1    8.10   14.65
  -7  -4   2   18.22   15.59
  -7  -3  -4    0.19   14.70
  -7  -3  -3   16.44   15.34
  -7  -3  -2   20.86   14.10
  -7  -3  -1   22.39   14.02
  -7  -3   0   56.21   14.59
  -7  -3   1    8.95   12.02
  -7  -3   2   34.24   12.86
  -7  -3   3   11.64   13.75
  -7  -3   4    8.72   13.60
  -7  -3   5   27.34   14.16
  -7  -3   6    6.43   14.06
  -7  -2  -4   18.17   13.65
  -7  -2  -3    0.98   13.00
  -7  -2  -2   11.27   13.09
  -7  -2  -1    2.86   12.19
  -7  -2   0   34.06    8.71
  -7  -2   1    7.47    7.75
  -7  -2   2   12.54    9.27
  -7  -2   3   21.70   11.48
  -7  -2   4    0.52   11.74
  -7  -2   5    8.69   12.65
  -7  -2   6    0.62   12.51
  -7  -1  -6   15.52   15.06
  -7  -1  -5   11.19   12.16
  -7  -1  -4   24.21   13.78
  -7  -1  -1   13.37   11.54
  -7  -1   0   46.56   13.60
  -7  -1   1    9.97    9.27
  -7  -1   2   16.57   11.41
  -7  -1   3    9.84   10.46
  -7  -1   4   12.73   10.99
  -7  -1   5   15.26    8.24
  -7  -1   6   15.70   12.35
  -7  -1   7   27.58   12.93
  -7   1  -3   21.79   13.02
  -7   1  -2   13.44   11.07
  -7   1  -1    7.06    8.01
  -7   1   0   45.70   11.99
  -7   1   1   17.09   12.19
  -7   1   2   30.57    8.46
  -7   1   3   18.88    8.90
  -7   1   4   31.81   10.74
  -7   1   5   24.28    8.22
  -7   1   6   21.55    9.42
  -7   1   7   16.90   13.37
  -7   2  -3    2.57   13.36
  -7   2  -2   16.86   14.27
  -7   2  -1    1.01   14.03
  -7   2   0   29.89   12.96
  -7   2   1    1.39    8.65
  -7   2   2   23.27    8.83
  -7   2   3    6.88    9.05
  -7   2   4   10.76    9.64
  -7   2   5    9.07    9.51
  -7   2   6   12.55   10.80
  -7   3  -2   15.55   13.23
  -7   3  -1   16.36   13.57
  -7   3   0   47.11   14.76
  -7   3   1   34.16    9.96
  -7   3   2   49.97   13.07
  -7   3   3   21.42    9.39
  -7   3   4   25.45   10.20
  -7   3   5   16.75   14.45
  -7   4   0   39.16   13.44
  -7   4   1   34.19   13.84
  -7   4   2   39.10   14.42
  -7   4   3   15.19   13.76
  -7   4   4   28.55   14.89
  -7   5   0    9.77   13.66
  -7   5   1   11.61   13.73
  -7   5   2   10.04   13.83
  -6  -5  -1    4.07   14.98
  -6  -5   0   11.91   13.54
  -6  -5   1   23.27   15.75
  -6  -5   2   15.54   13.51
  -6  -5   3   15.12   14.39
  -6  -4  -4   66.15   17.96
  -6  -4  -3   27.67   14.86
  -6  -4  -2   32.42   14.76
  -6  -4  -1   11.32   13.80
  -6  -4   0   65.70   15.94
  -6  -4   1   49.14   15.34
  -6  -4   2   50.52   15.88
  -6  -4   3   20.84   13.69
  -6  -4   4   38.16   15.04
  -6  -4   5   27.99   13.84
  -6  -4   6   18.76   13.89
  -6  -3  -6   31.25   16.19
  -6  -3  -5   24.14   14.22
  -6  -3  -4   75.88   15.36
  -6  -3  -3   48.61   14.66
  -6  -3  -2   52.44   14.24
  -6  -3  -1   32.18   12.76
  -6  -3   0   69.60   14.10
  -6  -3   1   48.93   13.27
  -6  -3   2   49.67   12.92
  -6  -3   3   62.50   14.28
  -6  -3   4   62.72   13.90
  -6  -3   5   29.44   13.44
  -6  -3   6   26.04   13.24
  -6  -3   7   30.65   13.77
  -6  -3   8   22.70   14.92
  -6  -2  -7   24.25   15.53
  -6  -2  -6   27.38   14.11
  -6  -2  -5   12.67   12.68
  -6  -2  -4   58.91   14.05
  -6  -2  -3   35.63   12.56
  -6  -2  -2   31.18   11.64
  -6  -2  -1   21.55   11.44
  -6  -2   0   31.91    7.65
  -6  -2   1   22.20    7.09
  -6  -2   2   45.23    7.85
  -6  -2   3   62.71    8.23
  -6  -2   4   38.06    7.90
  -6  -2   5   21.97    7.65
  -6  -2   6   11.68    7.39
  -6  -2   7   20.11   11.75
  -6  -2   8    0.93   12.61
  -6  -2   9   28.61   14.51
  -6  -1  -8   37.62   14.66
  -6  -1  -7   52.88   14.70
  -6  -1  -6   49.24   14.03
  -6  -1  -5   12.97   10.19
  -6  -1  -4   63.83   13.13
  -6  -1  -3   62.98   11.73
  -6  -1  -2   44.63   10.23
  -6  -1  -1   59.75    7.98
  -6  -1   0   82.33    8.18
  -6  -1   1   85.44    8.35
  -6  -1   2   83.22    8.11
  -6  -1   3   83.21    8.20
  -6  -1   4   48.64    7.68
  -6  -1   5   32.34    7.38
  -6  -1   6   28.63    7.61
  -6  -1   7   42.75    8.38
  -6  -1   8   18.35    7.42
  -6  -1   9   34.08    9.03
  -6  -1  10   24.76   10.72
  -6   1  -3   54.78   11.44
  -6   1  -2   69.27   13.31
  -6   1  -1   72.38   13.20
  -6   1   0   59.09   11.64
  -6   1   1   68.26    7.55
  -6   1   2   59.67    9.65
  -6   1   3  105.71   11.46
  -6   1   4   43.47    7.99
  -6   1   5   35.54    8.05
  -6   1   6   16.61    8.19
  -6   1   7   39.53   13.10
  -6   1   8   17.33   13.53
  -6   1   9   29.94   11.40
  -6   2  -3   22.54   13.47
  -6   2  -2   73.46   14.89
  -6   2  -1   48.14    7.49
  -6   2   0   26.87    7.70
  -6   2   1   20.26    7.94
  -6   2   2   45.97    8.91
  -6   2   3   94.33   12.19
  -6   2   4   35.88    8.38
  -6   2   5   25.53    8.65
  -6   2   6   16.79    9.05
  -6   2   7   45.02    9.99
  -6   2   8   15.20    9.62
  -6   2   9   27.76   15.32
  -6   3  -4   67.63   13.21
  -6   3  -3   59.97   13.88
  -6   3  -2  130.84   10.30
  -6   3  -1   63.37    8.70
  -6   3   0   38.63    8.51
  -6   3   1   37.10    8.95
  -6   3   2   86.30    9.96
  -6   3   3  143.29   11.71
  -6   3   4   57.04   10.17
  -6   3   5   65.47   19.65
  -6   3   6   52.90   13.82
  -6   3   7   62.30   11.40
  -6   3   8   24.63   11.18
  -6   4  -4   18.49   14.82
  -6   4  -3   26.43   14.44
  -6   4  -2   89.82   11.55
  -6   4  -1   35.75    9.38
  -6   4   0   46.81    9.24
  -6   4   1   60.34   10.00
  -6   4   2   66.94   10.21
  -6   4   3   87.75   10.54
  -6   4   4   25.24    9.79
  -6   4   5   27.55    9.53
  -6   4   6   30.77    9.65
  -6   4   7   28.96   10.56
  -6   5  -4   24.43   15.70
  -6   5  -3   35.68   15.22
  -6   5  -2   75.74   11.21
  -6   5  -1    0.39    8.77
  -6   5   0   15.84    9.04
  -6   5   1   12.87    9.18
  -6   5   2   28.06   10.05
  -6   5   3   55.56   13.26
  -6   5   4    6.70    9.57
  -6   5   5   19.03   10.63
  -6   6  -2   62.85   16.37
  -6   6  -1   29.43   10.53
  -6   6   0   38.71    9.69
  -6   6   1   38.63   10.46
  -6   6   2   44.78   11.18
  -5  -6  -2   52.63   17.12
  -5  -6  -1   16.52   15.29
  -5  -6   0   16.39   14.57
  -5  -6   1   18.92   16.05
  -5  -6   2   56.68   17.83
  -5  -6   3   52.35   16.53
  -5  -6   4   13.16   14.95
  -5  -5  -5   11.67   13.78
  -5  -5  -4   18.88   14.29
  -5  -5  -3   37.59   14.51
  -5  -5  -2   77.71   14.63
  -5  -5  -1   11.63   13.02
  -5  -5   0    8.23   13.84
  -5  -5   1    6.38   13.44
  -5  -5   2   30.41   13.03
  -5  -5   3   71.31   16.15
  -5  -5   4   27.36   12.76
  -5  -5   5   50.41   15.89
  -5  -5   6   34.81   14.51
  -5  -5   7   42.22   16.14
  -5  -4  -6   15.40   10.42
  -5  -4  -5    9.18   13.72
  -5  -4  -4   12.40   12.25
  -5  -4  -3   18.18   12.83
  -5  -4  -2   76.55   14.17
  -5  -4  -1   17.91   11.96
  -5  -4   0   28.53   12.09
  -5  -4   1   20.07   12.19
  -5  -4   2   60.41   13.27
  -5  -4   3   85.86   13.10
  -5  -4   4   13.93   12.69
  -5  -4   5   14.86   11.58
  -5  -4   6   15.58   13.00
  -5  -4   7   57.54   14.58
  -5  -4   8    6.69   13.27
  -5  -3  -8   22.27   15.12
  -5  -3  -7   50.59   15.91
  -5  -3  -6   35.60   14.64
  -5  -3  -5   57.71   14.75
  -5  -3  -4   55.70   12.71
  -5  -3  -3   88.42   14.82
  -5  -3  -2  281.50   18.70
  -5  -3  -1   36.47   10.80
  -5  -3   0   38.96   11.38
  -5  -3   1   29.83    6.68
  -5  -3   2  118.86    8.13
  -5  -3   3  188.20    9.83
  -5  -3   4   56.85    6.78
  -5  -3   5   98.87   14.31
  -5  -3   6   83.99   14.52
  -5  -3   7  109.70   14.94
  -5  -3   8   24.61   12.26
  -5  -3   9   47.43   15.37
  -5  -3  10   30.42   15.08
  -5  -2  -8    0.08   14.59
  -5  -2  -7   11.51   12.64
  -5  -2  -6   13.92   12.12
  -5  -2  -5    3.48   11.43
  -5  -2  -4   18.78   11.80
  -5  -2  -3   57.83   11.89
  -5  -2  -2  233.65   15.56
  -5  -2  -1    6.65    6.23
  -5  -2   0   12.71    6.26
  -5  -2   1   15.45    5.79
  -5  -2   2   83.19    7.96
  -5  -2   3  126.20    9.46
  -5  -2   4   17.54    6.63
  -5  -2   5   49.32    6.68
  -5  -2   6   54.67    8.73
  -5  -2   7   52.26    8.25
  -5  -2   8   26.69    7.85
  -5  -2   9   14.57    8.04
  -5  -2  10   15.51   13.77
  -5  -2  11   42.59   15.27
  -5  -1  -9   50.19   15.79
  -5  -1  -8   31.21   13.24
  -5  -1  -7   50.36   14.05
  -5  -1  -6   16.88   10.72
  -5  -1  -5    0.15   10.97
  -5  -1  -3   18.68    8.95
  -5  -1  -2  208.51   12.16
  -5  -1  -1   19.82    5.55
  -5  -1   0   27.72    6.06
  -5  -1   1   30.83    6.02
  -5  -1   2   98.11    7.25
  -5  -1   3  105.56    8.19
  -5  -1   4    7.09    5.66
  -5  -1   5   26.51    6.09
  -5  -1   6   51.00   10.54
  -5  -1   7   34.72    7.61
  -5  -1   8   16.99    5.66
  -5  -1   9   24.82    7.08
  -5  -1  10   39.33   16.25
  -5  -1  11   45.18   11.22
  -5  -1  12   10.86    9.95
  -5   1 -10   14.85   14.17
  -5   1  -9   25.76   11.60
  -5   1  -8   38.38   10.52
  -5   1  -7   35.14   11.97
  -5   1  -6   34.07    9.19
  -5   1  -5    1.04    9.09
  -5   1  -4    1.40    8.81
  -5   1  -3   22.09    3.40
  -5   1  -2  164.01   13.09
  -5   1  -1   14.76    3.48
  -5   1   0   35.17    4.85
  -5   1   1   39.96    4.19
  -5   1   2   81.93    6.03
  -5   1   3   61.37    5.01
  -5   1   4   11.58    4.81
  -5   1   5   29.11    8.12
  -5   1   6   73.14    9.20
  -5   1   7   35.07    6.53
  -5   1   8   39.15    7.78
  -5   1   9   22.82    8.91
  -5   1  10   37.23   10.97
  -5   1  11   62.87   16.83
  -5   2  -9    9.13   12.55
  -5   2  -8   20.99   11.94
  -5   2  -7   31.64   11.90
  -5   2  -6   11.37   10.21
  -5   2  -5    4.28    8.32
  -5   2  -4   22.96    7.00
  -5   2  -3   58.73    5.47
  -5   2  -2  208.94    9.59
  -5   2  -1    2.69    3.97
  -5   2   0   19.40    4.17
  -5   2   1   33.47    7.05
  -5   2   2   53.18    7.76
  -5   2   3   59.71    7.88
  -5   2   4   25.32    7.91
  -5   2   5   62.67   14.81
  -5   2   6  106.57   18.24
  -5   2   7   42.39    9.83
  -5   2   8   44.67    9.79
  -5   2   9   27.17   17.95
  -5   2  10   34.27   11.34
  -5   3  -4   80.10   12.00
  -5   3  -3  119.91   18.04
  -5   3  -2  255.44   11.05
  -5   3  -1    3.24    6.39
  -5   3   0   47.98    9.28
  -5   3   1   63.63    9.41
  -5   3   2   88.46    9.01
  -5   3   3   98.38    9.87
  -5   3   4   66.28   12.09
  -5   3   5  105.76   10.41
  -5   3   6  192.72   12.74
  -5   3   7   60.99   15.11
  -5   3   8   52.44   10.90
  -5   3   9   47.27   10.85
  -5   3  10   58.27   12.24
  -5   4  -4    7.27    7.35
  -5   4  -3   20.29    7.63
  -5   4  -2   89.65    8.86
  -5   4  -1    3.61    6.81
  -5   4   0   29.84    7.57
  -5   4   1   40.49    8.31
  -5   4   2   35.56    7.99
  -5   4   3   28.79    8.10
  -5   4   4    2.61    8.12
  -5   4   5    7.48    8.73
  -5   4   6   49.53   10.26
  -5   4   7   34.01    9.85
  -5   4   8   36.77   10.10
  -5   4   9   33.32   10.80
  -5   5  -4   42.05   15.09
  -5   5  -3   54.91    9.19
  -5   5  -2   96.28   23.72
  -5   5  -1    1.31    7.71
  -5   5   0   10.13    7.71
  -5   5   1   10.58    7.91
  -5   5   2   14.43    8.15
  -5   5   3   42.52   13.64
  -5   5   4   37.57   12.36
  -5   5   5   43.52    9.61
  -5   5   6   97.47   12.79
  -5   5   7   24.37   10.07
  -5   5   8   24.15   14.40
  -5   6  -5    9.98   13.34
  -5   6  -4   14.14    9.46
  -5   6  -3   33.95    9.62
  -5   6  -2   57.93    9.91
  -5   6  -1    3.31    8.50
  -5   6   0   32.84    9.29
  -5   6   1   45.40   10.35
  -5   6   2   24.52    9.16
  -5   6   3   25.25    8.90
  -5   6   4   25.02    9.51
  -5   6   5   12.99    9.60
  -5   6   6   53.45   11.07
  -5   7  -4   15.34   17.11
  -5   7  -3   17.39    9.15
  -5   7  -2   45.87   11.29
  -5   7  -1    4.41    9.23
  -5   7   0    5.17    9.30
  -5   7   1   18.67    9.89
  -5   7   2    5.83    8.92
  -5   7   3   16.00   13.94
  -5   7   4   18.64   14.28
  -5   8   0    0.71   14.16
  -5   8   1    9.04   13.95
  -4  -7  -2   51.69   17.05
  -4  -7  -1    3.53   14.10
  -4  -7   0   17.83   13.56
  -4  -7   1   11.60   14.02
  -4  -7   2   25.80   15.13
  -4  -7   3   21.77   15.44
  -4  -6  -5    6.89   14.65
  -4  -6  -4    9.11   13.67
  -4  -6  -3   22.33   13.25
  -4  -6  -2   81.16   15.14
  -4  -6  -1    0.17   12.23
  -4  -6   0   31.46   13.02
  -4  -6   1   37.08   13.13
  -4  -6   2   49.27   14.98
  -4  -6   3   28.72   14.24
  -4  -6   4    2.06   13.61
  -4  -6   5    4.60   12.28
  -4  -6   6   38.56   10.54
  -4  -6   7   39.97   15.77
  -4  -6   8   32.08   16.09
  -4  -5  -7    6.77   13.92
  -4  -5  -6    7.18   14.72
  -4  -5  -5   20.36   14.96
  -4  -5  -4   57.36   14.83
  -4  -5  -3   61.08   13.81
  -4  -5  -2  127.52   15.91
  -4  -5  -1    0.24   12.46
  -4  -5   0   13.74   11.12
  -4  -5   1    9.41   12.40
  -4  -5   2   10.55   12.45
  -4  -5   3   27.12   12.33
  -4  -5   4   19.20   12.09
  -4  -5   5   47.10   13.89
  -4  -5   6   65.43   10.13
  -4  -5   7   29.84    9.43
  -4  -5   8   18.04   11.44
  -4  -5   9    0.32   12.32
  -4  -5  10    0.30   13.97
  -4  -4  -8   53.18   16.59
  -4  -4  -7   55.15   15.45
  -4  -4  -6    4.22   13.30
  -4  -4  -5    7.57   10.98
  -4  -4  -4   12.46   12.23
  -4  -4  -3   15.41   11.41
  -4  -4  -2  101.27   13.49
  -4  -4  -1    2.71    9.38
  -4  -4   0   41.13   11.52
  -4  -4   1   53.43   12.38
  -4  -4   2   37.88   11.74
  -4  -4   3   21.85   10.19
  -4  -4   4    1.55    9.53
  -4  -4   5    4.17    7.73
  -4  -4   6   25.35    7.67
  -4  -4   7   51.20    8.83
  -4  -4   8   56.38    9.59
  -4  -4   9   30.65    9.22
  -4  -4  10   15.21    9.34
  -4  -3  -9   81.66   17.56
  -4  -3  -8   67.07   15.69
  -4  -3  -7   99.06   15.99
  -4  -3  -6   29.52   12.53
  -4  -3  -5   52.71   13.24
  -4  -3  -4  154.53   16.08
  -4  -3  -3  140.37   13.26
  -4  -3  -2  268.12   16.65
  -4  -3  -1   10.45    9.65
  -4  -3   0   98.48   12.20
  -4  -3   1   97.63    6.45
  -4  -3   2  101.36    6.56
  -4  -3   3   80.68    5.95
  -4  -3   4   52.38    6.59
  -4  -3   5  101.11    5.54
  -4  -3   6  158.93    9.04
  -4  -3   7   92.14    6.55
  -4  -3   8   68.92    9.20
  -4  -3   9   42.56    8.32
  -4  -3  10   17.46   13.94
  -4  -3  11   13.70   13.02
  -4  -2 -11    4.67   15.19
  -4  -2 -10    9.68   17.35
  -4  -2  -9   36.92   10.34
  -4  -2  -8   39.19   11.96
  -4  -2  -7   56.87    8.68
  -4  -2  -6    5.61    6.76
  -4  -2  -5   12.84   10.67
  -4  -2  -4   89.13   11.33
  -4  -2  -3   56.15   30.35
  -4  -2  -2  183.43   11.32
  -4  -2  -1    1.64    5.12
  -4  -2   0   38.04    5.89
  -4  -2   1   42.27    5.98
  -4  -2   2   32.23    5.33
  -4  -2   3   29.90    5.72
  -4  -2   4   19.71    5.02
  -4  -2   5   43.27    8.33
  -4  -2   6  101.20    6.01
  -4  -2   7   89.69    6.53
  -4  -2   8   43.00    5.53
  -4  -2   9   23.26    7.45
  -4  -2  10    7.28    7.67
  -4  -2  11    0.16   11.17
  -4  -1 -11   17.93   15.89
  -4  -1 -10   33.77    9.50
  -4  -1  -9   90.65   10.85
  -4  -1  -8   79.01    9.81
  -4  -1  -7  121.43   13.89
  -4  -1  -6   12.10    9.75
  -4  -1  -5    5.03    8.46
  -4  -1  -4   26.73    9.59
  -4  -1  -3   46.15    1.87
  -4  -1  -2  159.32   10.05
  -4  -1  -1    7.23    4.53
  -4  -1   0  102.86    7.05
  -4  -1   1  110.76    6.46
  -4  -1   2   63.97    5.79
  -4  -1   3   26.97    4.41
  -4  -1   4    2.78    5.04
  -4  -1   5   10.06    6.32
  -4  -1   6   55.13    4.94
  -4  -1   7  126.85    5.95
  -4  -1   8   66.05    7.73
  -4  -1   9   42.26   10.45
  -4  -1  10    7.76    8.85
  -4  -1  11    7.86   10.44
  -4  -1  12   28.49   12.98
  -4  -1  13    1.01   13.78
  -4   1 -11   28.70   14.09
  -4   1 -10   26.56   12.61
  -4   1  -9   88.31   13.43
  -4   1  -8   71.66   12.78
  -4   1  -7   89.46   11.47
  -4   1  -6    2.55    8.63
  -4   1  -5    6.32    3.26
  -4   1  -4   13.21   11.46
  -4   1  -3   32.12    3.36
  -4   1  -2   91.57    9.24
  -4   1  -1   25.70    3.38
  -4   1   0   87.79    4.90
  -4   1   1   89.68    4.30
  -4   1   2   92.09    6.01
  -4   1   3   51.66    4.60
  -4   1   4    6.12    4.43
  -4   1   5   10.44    4.85
  -4   1   6   56.41    9.74
  -4   1   7  235.21   15.55
  -4   1   8   76.85   13.98
  -4   1   9   53.34   12.26
  -4   1  10   20.11   12.74
  -4   1  11   15.75   14.71
  -4   1  12   18.29    9.20
  -4   2 -11   24.57   14.42
  -4   2 -10   10.78   12.35
  -4   2  -9   72.72   15.20
  -4   2  -8   50.39   11.90
  -4   2  -7   98.36   12.79
  -4   2  -6    4.16    9.01
  -4   2  -5   45.02    6.20
  -4   2  -4   68.56    4.58
  -4   2  -3   98.81    6.92
  -4   2  -2  121.62    8.42
  -4   2  -1   35.49    4.20
  -4   2   0   66.98    6.07
  -4   2   1   65.14    2.50
  -4   2   2   60.33    2.45
  -4   2   3   46.78    3.21
  -4   2   4   34.92    3.01
  -4   2   5   40.98    7.71
  -4   2   6   73.55    8.80
  -4   2   7  185.59   16.67
  -4   2   8   28.75   11.47
  -4   2   9   19.00   11.30
  -4   2  10    1.72   13.17
  -4   2  11    8.77   14.38
  -4   3 -11   38.74   14.61
  -4   3 -10   29.31   13.44
  -4   3  -9   91.12   13.91
  -4   3  -8   72.40   11.99
  -4   3  -7  125.26   13.28
  -4   3  -6   45.19    9.52
  -4   3  -5   84.75    6.13
  -4   3  -4  117.43   13.68
  -4   3  -3  199.09    6.36
  -4   3  -2  208.82   10.64
  -4   3  -1  118.69    6.14
  -4   3   0  123.61    8.69
  -4   3   1  158.60    8.71
  -4   3   2  130.55    8.84
  -4   3   3  121.79    8.51
  -4   3   4   82.17    5.58
  -4   3   5   84.93   10.20
  -4   3   6  115.31   10.21
  -4   3   7  233.05   15.73
  -4   3   8   61.27   12.53
  -4   3   9   44.00    9.44
  -4   3  10   11.24    9.16
  -4   3  11   12.75   15.76
  -4   4  -5    7.42    9.65
  -4   4  -4    9.08    6.62
  -4   4  -3   38.24    7.77
  -4   4  -2   56.90    6.98
  -4   4  -1   53.00    7.48
  -4   4   0   55.82    7.19
  -4   4   1   90.29    8.48
  -4   4   2  134.38   10.43
  -4   4   3   47.41    8.20
  -4   4   4    6.85    7.05
  -4   4   5    5.86   10.63
  -4   4   6   20.12    8.87
  -4   4   7  125.35   11.75
  -4   4   8   37.38    8.41
  -4   4   9   34.48   10.11
  -4   4  10   14.00   10.00
  -4   5  -6   14.98   11.30
  -4   5  -5   24.07   11.15
  -4   5  -4   50.75    8.93
  -4   5  -3  105.25   11.22
  -4   5  -2   53.29    8.78
  -4   5  -1   30.64    6.83
  -4   5   0   21.91    6.97
  -4   5   1   32.72    7.21
  -4   5   2   25.18    7.41
  -4   5   3   37.10    7.79
  -4   5   4   37.00    8.99
  -4   5   5   31.10    8.44
  -4   5   6   36.62    9.00
  -4   5   7   81.97   11.12
  -4   5   8   12.90    9.50
  -4   5   9    2.76    9.82
  -4   6  -5   27.23   13.31
  -4   6  -4   27.23    8.97
  -4   6  -3   51.27    9.20
  -4   6  -2   45.94    8.36
  -4   6  -1   51.54   11.63
  -4   6   0   65.03   11.16
  -4   6   1   86.70    9.64
  -4   6   2   98.38   10.10
  -4   6   3   52.14    8.92
  -4   6   4    7.55    7.97
  -4   6   5    3.61    9.11
  -4   6   6   13.92    9.12
  -4   6   7  103.45   19.06
  -4   6   8   28.14    9.87
  -4   7  -5   15.05   14.25
  -4   7  -4   27.19   11.52
  -4   7  -3   37.19    9.65
  -4   7  -2   34.07    9.23
  -4   7  -1   29.09    8.73
  -4   7   0   31.69    8.90
  -4   7   1   33.63    9.05
  -4   7   2   54.02    9.33
  -4   7   3   23.59    8.94
  -4   7   4   17.03    9.08
  -4   7   5    3.72    9.11
  -4   7   6   11.72   14.09
  -4   7   7   48.11   15.38
  -4   8   2   10.06   12.02
  -4   8   3    0.73   11.29
  -4   8   4    2.95   12.52
  -4   8   5    1.90   13.66
  -3  -8  -1    0.18   14.50
  -3  -8   0   13.32   12.95
  -3  -8   1   11.63   14.05
  -3  -8   2    4.56   14.12
  -3  -7  -5   27.02   14.60
  -3  -7  -4   43.50   14.71
  -3  -7  -3   53.54   14.85
  -3  -7  -2   41.10   13.33
  -3  -7  -1    9.65   12.85
  -3  -7   0   30.73   13.58
  -3  -7   1   41.77   13.81
  -3  -7   2   42.63   15.33
  -3  -7   3   23.97   12.64
  -3  -7   4    8.08   12.00
  -3  -7   5    0.69    9.93
  -3  -7   6   23.57   10.13
  -3  -6  -7   67.13   17.52
  -3  -6  -6   25.67   13.35
  -3  -6  -5   38.35   15.36
  -3  -6  -4   48.99   14.28
  -3  -6  -3   51.46   12.84
  -3  -6  -2   53.17   13.44
  -3  -6  -1   49.50   14.11
  -3  -6   0   75.97   13.86
  -3  -6   1  121.83   15.87
  -3  -6   2  107.12   15.66
  -3  -6   3   55.47   13.24
  -3  -6   4   25.12    8.77
  -3  -6   5   11.42    8.83
  -3  -6   6   33.50    8.99
  -3  -6   7  115.82   12.39
  -3  -6   8   46.96   10.22
  -3  -6   9   39.34   17.55
  -3  -5  -9   30.12   16.39
  -3  -5  -8   20.40   14.77
  -3  -5  -7   53.26   15.34
  -3  -5  -6    8.69   13.47
  -3  -5  -5   53.66   12.85
  -3  -5  -4   56.69   14.74
  -3  -5  -3   63.33   12.88
  -3  -5  -2   55.35   12.82
  -3  -5  -1   12.08    9.57
  -3  -5   0   62.94   12.04
  -3  -5   1   47.29   11.97
  -3  -5   2   44.78   10.41
  -3  -5   3   36.89    7.90
  -3  -5   4   27.79    7.95
  -3  -5   5   21.44    8.00
  -3  -5   6   24.99    8.72
  -3  -5   7  101.11   10.74
  -3  -5   8    9.07    9.46
  -3  -5   9    7.18    9.04
  -3  -5  10    0.14   13.93
  -3  -5  11    8.68   14.37
  -3  -4 -10   34.44   16.67
  -3  -4  -9   72.56   15.85
  -3  -4  -8   63.18   10.16
  -3  -4  -7   82.30    9.77
  -3  -4  -6   52.78    9.78
  -3  -4  -5   64.99    9.53
  -3  -4  -4   68.26    7.76
  -3  -4  -3   60.95    5.61
  -3  -4  -2   64.24    3.43
  -3  -4  -1  104.87   13.00
  -3  -4   0  123.43   11.45
  -3  -4   1  159.07   13.13
  -3  -4   2  266.98   15.97
  -3  -4   3   85.13    8.12
  -3  -4   4   29.92    7.13
  -3  -4   5   13.13    6.84
  -3  -4   6   12.52    6.74
  -3  -4   7  221.30   17.75
  -3  -4   8   53.53    8.27
  -3  -4   9   46.74    9.55
  -3  -4  10   23.49    9.26
  -3  -4  11   22.94   12.60
  -3  -4  12   35.61   14.89
  -3  -3 -12    4.58   16.22
  -3  -3 -11   34.21   15.74
  -3  -3 -10   29.74   10.68
  -3  -3  -9   86.30   10.83
  -3  -3  -8   66.98    9.91
  -3  -3  -7  133.56    9.61
  -3  -3  -6   97.95    8.86
  -3  -3  -5  164.39    8.83
  -3  -3  -4  188.62    7.58
  -3  -3  -3  186.71    4.90
  -3  -3  -2  177.98    4.92
  -3  -3  -1  181.80    6.73
  -3  -3   0  198.51   14.28
  -3  -3   1  238.32    6.98
  -3  -3   2  394.00    8.58
  -3  -3   3  183.03    5.80
  -3  -3   4  112.94    5.20
  -3  -3   5   96.01    5.33
  -3  -3   6   57.45    5.84
  -3  -3   7  378.70   10.61
  -3  -3   8   58.76    6.39
  -3  -3   9   54.48    6.30
  -3  -3  10   15.93   10.28
  -3  -3  11   23.68   11.87
  -3  -3  12   76.95   14.40
  -3  -2 -12    3.63   16.25
  -3  -2 -11   29.99   10.62
  -3  -2 -10   23.17    9.46
  -3  -2  -9   61.67   21.75
  -3  -2  -8   37.58    8.55
  -3  -2  -7   63.09    9.01
  -3  -2  -6   65.93    7.52
  -3  -2  -5  101.78   11.39
  -3  -2  -4  155.60   16.52
  -3  -2  -3  107.07    8.73
  -3  -2  -2   89.62    3.99
  -3  -2  -1   81.50   11.27
  -3  -2   0   99.65    5.23
  -3  -2   1  110.52   10.02
  -3  -2   2  352.78   11.64
  -3  -2   3   94.48    4.86
  -3  -2   4   27.83    3.94
  -3  -2   5   20.37    4.18
  -3  -2   6    3.73    4.15
  -3  -2   7  280.85   14.49
  -3  -2   8   24.66    5.71
  -3  -2   9   27.70    6.76
  -3  -2  10   16.27    5.80
  -3  -2  11    9.01    7.42
  -3  -2  12   36.85   14.07
  -3  -2  13   11.10   13.51
  -3  -1 -12    2.17   15.81
  -3  -1 -11   41.70   13.97
  -3  -1 -10   25.39   10.27
  -3  -1  -9  101.42    9.74
  -3  -1  -8  124.31   10.03
  -3  -1  -7   96.65   10.71
  -3  -1  -6  101.42    8.33
  -3  -1  -5   92.07    7.37
  -3  -1  -4  129.11   11.95
  -3  -1  -3  123.16   10.41
  -3  -1  -2  119.19   10.77
  -3  -1  -1  148.50    5.59
  -3  -1   0  223.29    9.05
  -3  -1   1  311.09    7.87
  -3  -1   2  859.50   21.68
  -3  -1   3  190.53    7.19
  -3  -1   4   44.73    5.53
  -3  -1   5   30.40    4.79
  -3  -1   6    9.09    4.13
  -3  -1   7  325.62   17.17
  -3  -1   8   71.15    6.46
  -3  -1   9   82.20   11.47
  -3  -1  10   71.67    9.67
  -3  -1  11   60.35   13.86
  -3  -1  12   59.98   17.60
  -3  -1  13    1.62   14.28
  -3   1 -11   23.75    8.79
  -3   1 -10   26.55    8.42
  -3   1  -9   94.38   11.38
  -3   1  -8   89.57   12.78
  -3   1  -7   69.85   11.08
  -3   1  -6   63.18    8.76
  -3   1  -5   91.85    6.20
  -3   1  -4  185.11    5.18
  -3   1  -3  112.24    6.74
  -3   1  -2  145.77    7.46
  -3   1  -1  111.12    7.77
  -3   1   0  254.26   17.52
  -3   1   1  315.29    5.75
  -3   1   2  882.99   26.01
  -3   1   3  164.01    6.28
  -3   1   4   41.43    5.74
  -3   1   5   28.38    8.64
  -3   1   6   19.21    2.82
  -3   1   7  257.17   58.33
  -3   1   8   95.64    5.94
  -3   1   9   53.30   11.07
  -3   1  10   80.71   14.28
  -3   1  11   26.59    9.58
  -3   1  12    6.69    6.80
  -3   2 -11    9.16   12.40
  -3   2 -10    4.10   12.03
  -3   2  -9   20.64   12.10
  -3   2  -8   60.90   11.35
  -3   2  -7   46.58   10.54
  -3   2  -6   47.46   10.18
  -3   2  -5   74.88    5.22
  -3   2  -4  238.77    8.65
  -3   2  -3   76.34    4.46
  -3   2  -2   82.58    4.18
  -3   2  -1   70.18    4.05
  -3   2   0  108.75    3.23
  -3   2   1  115.71    6.85
  -3   2   2  484.58   17.22
  -3   2   3   84.41    4.11
  -3   2   4   46.87    4.82
  -3   2   5   55.30    6.35
  -3   2   6   25.43    9.50
  -3   2   7  203.00   15.94
  -3   2   8   32.43   10.79
  -3   2   9   34.79   12.24
  -3   2  10   59.07   13.88
  -3   2  11   21.81   13.50
  -3   2  12   11.29   14.31
  -3   2  13   25.96   15.34
  -3   3 -11   24.87   13.30
  -3   3 -10   36.79   12.94
  -3   3  -9   64.39   12.42
  -3   3  -8   78.42   12.64
  -3   3  -7   73.58   10.26
  -3   3  -6   80.51    9.72
  -3   3  -5  153.34    8.61
  -3   3  -4  380.36    8.49
  -3   3  -3  154.47    5.91
  -3   3  -2  189.01   11.91
  -3   3  -1  104.33    3.11
  -3   3   0  233.26   15.05
  -3   3   1  213.83    9.82
  -3   3   2  538.99   48.01
  -3   3   3  166.44    8.29
  -3   3   4  149.18   13.58
  -3   3   5  119.41    5.99
  -3   3   6   93.39   17.80
  -3   3   7  248.54   11.81
  -3   3   8   81.03   11.05
  -3   3   9   53.37   13.52
  -3   3  10   78.44   10.71
  -3   3  11   41.95   13.52
  -3   3  12   49.14   15.83
  -3   4 -11   18.46   13.05
  -3   4 -10   29.61   12.52
  -3   4  -9   70.96   12.68
  -3   4  -8   38.56   10.70
  -3   4  -7   36.35    9.90
  -3   4  -6   50.92    9.20
  -3   4  -5   85.93    6.29
  -3   4  -4  157.74    6.88
  -3   4  -3   56.90    4.67
  -3   4  -2   96.61    7.59
  -3   4  -1   58.60    7.03
  -3   4   0  200.50   10.67
  -3   4   1  199.64   11.09
  -3   4   2  418.20   16.11
  -3   4   3  129.83   15.66
  -3   4   4   70.30    8.68
  -3   4   5   37.41    6.99
  -3   4   6   41.00    7.41
  -3   4   7  127.82   10.05
  -3   4   8   86.76   23.18
  -3   4   9   73.44    9.71
  -3   4  10   92.17   15.88
  -3   4  11   44.55   14.17
  -3   4  12   37.82   15.92
  -3   5  -9   10.04   11.17
  -3   5  -8   62.29   11.99
  -3   5  -7   14.85    8.52
  -3   5  -6   14.11    7.76
  -3   5  -5   37.75    6.63
  -3   5  -4  107.09    8.98
  -3   5  -3   14.42    6.36
  -3   5  -2   15.06    6.66
  -3   5  -1   19.45    5.90
  -3   5   0   40.02    6.91
  -3   5   1   22.66    6.49
  -3   5   2   89.19    7.95
  -3   5   3   36.76    6.99
  -3   5   4   52.83    7.90
  -3   5   5   19.29    7.31
  -3   5   6   28.98    8.91
  -3   5   7   46.32    9.27
  -3   5   8   24.07    8.36
  -3   5   9   15.26    8.80
  -3   5  10   12.86   10.19
  -3   5  11    2.43   15.24
  -3   6  -5   75.04   14.56
  -3   6  -4  133.60    9.94
  -3   6  -3   47.63    8.28
  -3   6  -2   88.63    9.00
  -3   6  -1   62.71    8.11
  -3   6   0  104.66   12.50
  -3   6   1  108.23    9.66
  -3   6   2  208.14   24.50
  -3   6   3   91.79    9.36
  -3   6   4   80.97    8.98
  -3   6   5   25.22    8.34
  -3   6   6   52.87    9.33
  -3   6   7   86.29   10.93
  -3   6   8   70.24   10.14
  -3   6   9   48.38   10.38
  -3   6  10   63.44   17.18
  -3   7  -5   30.91   14.94
  -3   7  -4   67.00   15.94
  -3   7  -3   17.91    9.50
  -3   7  -2   37.60   11.60
  -3   7  -1   29.41   13.13
  -3   7   0   25.39    7.66
  -3   7   1   42.89    8.57
  -3   7   2   81.12    9.27
  -3   7   3   41.76    8.64
  -3   7   4   45.56    8.81
  -3   7   5   14.88    8.81
  -3   7   6   18.85    9.57
  -3   7   7   47.81   10.34
  -3   7   8   37.84   11.20
  -3   8  -3    1.20   13.98
  -3   8  -2    0.14   13.22
  -3   8  -1    2.13   14.26
  -3   8   0    8.17   14.51
  -3   8   1    9.83   13.73
  -3   8   2   10.44   14.30
  -3   8   3   15.76   14.96
  -3   8   4    7.69   13.68
  -3   8   5    7.78   11.55
  -3   8   6   10.31   12.75
  -3   8   7   22.89   14.62
  -2  -8  -5   21.54   15.12
  -2  -8  -4   16.14   14.73
  -2  -8  -3    7.81   14.04
  -2  -8  -2    5.16   13.54
  -2  -8  -1    3.77   13.38
  -2  -8   0   11.20   13.19
  -2  -8   1    8.19   12.57
  -2  -8   2   18.59   13.94
  -2  -8   3    3.91   12.97
  -2  -8   4   10.31    9.66
  -2  -8   5   10.84   14.14
  -2  -7  -7    3.74   14.33
  -2  -7  -6   26.97   14.34
  -2  -7  -5   40.70   15.38
  -2  -7  -4   59.75   14.38
  -2  -7  -3   29.15   12.82
  -2  -7  -2   16.99   12.81
  -2  -7  -1   57.27   14.18
  -2  -7   0   42.96   13.69
  -2  -7   1   35.42   12.90
  -2  -7   2   92.24   14.73
  -2  -7   3   33.92    9.25
  -2  -7   4   22.36    8.79
  -2  -7   5   27.64    9.99
  -2  -7   6   15.93    9.02
  -2  -7   7   97.74   12.35
  -2  -6  -9   29.01   16.29
  -2  -6  -8   11.11   13.89
  -2  -6  -7    3.95   12.91
  -2  -6  -6   56.12   14.67
  -2  -6  -5  100.28   15.33
  -2  -6  -4  125.97   16.01
  -2  -6  -3   72.99   13.28
  -2  -6  -2   50.76   12.38
  -2  -6  -1   63.77   12.57
  -2  -6   0   95.13   13.54
  -2  -6   1   84.40   12.31
  -2  -6   2  199.35   12.26
  -2  -6   3   81.38    9.29
  -2  -6   4   60.26   12.11
  -2  -6   5   76.21    9.09
  -2  -6   6   40.21    9.29
  -2  -6   7  138.63   11.72
  -2  -6   8   28.83   10.13
  -2  -6   9   33.32   10.57
  -2  -5 -10   13.25   10.97
  -2  -5  -9   20.84    9.72
  -2  -5  -8   14.72    9.62
  -2  -5  -7   11.99    7.95
  -2  -5  -6   13.87    7.41
  -2  -5  -5   29.24    7.96
  -2  -5  -4  115.67   13.31
  -2  -5  -3   11.63    9.97
  -2  -5  -2    5.99    9.63
  -2  -5  -1    3.75    9.44
  -2  -5   0   27.43    9.91
  -2  -5   1    9.37    4.15
  -2  -5   2   91.55    8.00
  -2  -5   3   18.34    9.70
  -2  -5   4   30.49    7.64
  -2  -5   5   60.45    7.69
  -2  -5   6   54.65    8.73
  -2  -5   7   67.04    9.10
  -2  -5   8    1.27    7.97
  -2  -5   9    5.35    8.29
  -2  -5  10    9.58    9.19
  -2  -5  11   23.17   13.72
  -2  -4 -12   25.50   18.05
  -2  -4 -11   23.99   14.70
  -2  -4 -10   43.71   11.17
  -2  -4  -9   69.08   11.09
  -2  -4  -8    9.60    8.46
  -2  -4  -7   19.66    7.63
  -2  -4  -6   61.17   12.59
  -2  -4  -5  106.81    7.83
  -2  -4  -4  252.20   17.02
  -2  -4  -3   75.61   10.66
  -2  -4  -2   79.43   10.89
  -2  -4  -1   62.59    9.37
  -2  -4   0  257.52   15.45
  -2  -4   1  182.13    4.36
  -2  -4   2  406.32    7.81
  -2  -4   3  119.67    5.51
  -2  -4   4   66.34    7.92
  -2  -4   5   96.17    4.55
  -2  -4   6   70.14    4.02
  -2  -4   7  143.33    7.28
  -2  -4   8   55.13    6.47
  -2  -4   9   56.02    6.36
  -2  -4  10   82.70    9.41
  -2  -4  11   73.50   15.05
  -2  -4  12   42.69   14.75
  -2  -3 -12   16.84   15.69
  -2  -3 -11   10.85   10.09
  -2  -3 -10   56.15   10.18
  -2  -3  -9   94.66   11.25
  -2  -3  -8   27.32    8.25
  -2  -3  -7   36.08    7.93
  -2  -3  -6  109.42   11.43
  -2  -3  -5  204.32    9.73
  -2  -3  -4  473.32    8.66
  -2  -3  -3   75.67    3.71
  -2  -3  -2   82.20    3.95
  -2  -3  -1   31.19    5.37
  -2  -3   0  230.51   10.30
  -2  -3   1  147.37   12.83
  -2  -3   2  438.87   14.49
  -2  -3   3  149.78    4.12
  -2  -3   4  188.86   10.05
  -2  -3   5  228.42    5.95
  -2  -3   6  178.43   15.99
  -2  -3   7  186.20    8.89
  -2  -3   8   60.60    6.97
  -2  -3   9   62.19    8.57
  -2  -3  10   85.90    9.28
  -2  -3  11   75.22   10.10
  -2  -3  12   76.09   10.19
  -2  -3  13   48.87   10.76
  -2  -2 -12    8.88   15.29
  -2  -2 -11    4.36    9.71
  -2  -2 -10   34.66    9.74
  -2  -2  -9   65.02    9.78
  -2  -2  -8   11.52   11.42
  -2  -2  -7   11.49    7.28
  -2  -2  -6   17.18    6.36
  -2  -2  -5  109.25    7.67
  -2  -2  -4  353.16   15.43
  -2  -2  -3    7.44    2.39
  -2  -2  -2   38.26    8.59
  -2  -2  -1    7.46    2.38
  -2  -2   0  159.44    6.87
  -2  -2   1   73.76    3.57
  -2  -2   2  277.05    5.71
  -2  -2   3   48.80    3.84
  -2  -2   4   80.91    3.76
  -2  -2   5  129.25    8.19
  -2  -2   6  126.30    6.39
  -2  -2   7   83.60    8.52
  -2  -2   8   33.59   16.37
  -2  -2   9   41.49    7.09
  -2  -2  10   43.93    8.14
  -2  -2  11   49.96    9.17
  -2  -2  12   39.84   10.41
  -2  -2  13   22.77    9.69
  -2  -1 -12   34.68   10.48
  -2  -1 -11   14.06    9.11
  -2  -1 -10   71.69   11.10
  -2  -1  -9  253.14   12.09
  -2  -1  -8    6.68    6.71
  -2  -1  -7   11.68    4.12
  -2  -1  -6   52.59    3.09
  -2  -1  -5  225.61    5.45
  -2  -1  -4  576.48    8.25
  -2  -1  -3   24.83    7.52
  -2  -1  -2  115.87    6.39
  -2  -1  -1  110.16    5.94
  -2  -1   0  533.78    8.56
  -2  -1   1  376.62    7.11
  -2  -1   2  588.24   18.62
  -2  -1   3  193.61    6.03
  -2  -1   4  214.13    8.03
  -2  -1   5  156.96    5.63
  -2  -1   6  134.46   14.05
  -2  -1   7  123.20   11.11
  -2  -1   8   71.56    9.52
  -2  -1   9   76.33   12.79
  -2  -1  10   72.71   12.89
  -2  -1  11   49.96    6.85
  -2  -1  12   65.11   15.16
  -2   1 -12   25.72    8.89
  -2   1 -11   35.36    8.17
  -2   1 -10   73.58    9.56
  -2   1  -9  158.72   32.94
  -2   1  -8    4.30    6.71
  -2   1  -7   16.01    6.49
  -2   1  -6   55.72    2.52
  -2   1  -5  282.76   33.62
  -2   1  -4  555.04  119.33
  -2   1  -3   18.69    1.80
  -2   1  -2  147.67    8.33
  -2   1  -1  140.98    5.45
  -2   1   0  304.64   17.36
  -2   1   1  308.50   11.49
  -2   1   2  380.31   11.80
  -2   1   3  182.60   15.24
  -2   1   4  247.52   15.81
  -2   1   5   93.71    6.10
  -2   1   6   85.64   10.49
  -2   1   7  100.21   11.68
  -2   1   8   35.43    7.62
  -2   1   9   61.03   11.08
  -2   1  10   14.99    4.43
  -2   1  11   40.57    8.15
  -2   1  12  103.54   16.82
  -2   1  13   22.96   10.74
  -2   2 -12    1.04    9.86
  -2   2 -11    8.11    9.73
  -2   2 -10   41.89    9.48
  -2   2  -9  152.66   10.08
  -2   2  -8   29.90    7.26
  -2   2  -7    7.59    6.21
  -2   2  -6   10.10    7.68
  -2   2  -5  102.95   10.88
  -2   2  -4  193.33    8.27
  -2   2  -3   45.27    3.30
  -2   2  -2   52.60    3.30
  -2   2  -1   27.64    2.58
  -2   2   0   53.49    4.54
  -2   2   1   79.38    9.12
  -2   2   2  135.32    9.70
  -2   2   3   83.83    9.39
  -2   2   4   91.53    2.21
  -2   2   5  155.93   18.92
  -2   2   6  137.73   10.30
  -2   2   7  105.24   12.80
  -2   2   8   46.49   10.61
  -2   2   9   47.45   12.32
  -2   2  10   21.99   12.77
  -2   2  11   51.04   14.38
  -2   2  12   61.34   16.38
  -2   2  13   55.04   16.16
  -2   3 -12   26.98   14.60
  -2   3 -11   46.56   13.87
  -2   3 -10   93.36   14.23
  -2   3  -9  202.21   17.05
  -2   3  -8   16.67    9.55
  -2   3  -7   48.74   10.10
  -2   3  -6   67.61    9.52
  -2   3  -5  220.32   11.05
  -2   3  -4  330.46   15.94
  -2   3  -3   96.09    4.74
  -2   3  -2  138.26   10.38
  -2   3  -1  103.27    6.36
  -2   3   0   95.32    6.30
  -2   3   1  137.18   12.53
  -2   3   2  192.45    6.09
  -2   3   3  169.05    9.73
  -2   3   4  174.85    7.03
  -2   3   5  280.10   17.47
  -2   3   6  222.26    6.84
  -2   3   7  180.97   10.56
  -2   3   8   74.15    9.03
  -2   3   9   77.65    8.74
  -2   3  10   50.36    9.49
  -2   3  11   82.58   10.78
  -2   3  12   66.82   11.44
  -2   3  13   54.19   16.08
  -2   4 -11   30.90   13.18
  -2   4 -10   51.61   13.02
  -2   4  -9   91.99   14.19
  -2   4  -8    7.60    9.60
  -2   4  -7   27.79    9.26
  -2   4  -6   58.48    9.57
  -2   4  -5  186.39   11.78
  -2   4  -4  234.40   19.01
  -2   4  -3   65.54    5.21
  -2   4  -2   96.84    6.51
  -2   4  -1   78.88    6.51
  -2   4   0   88.46   13.86
  -2   4   1  152.61    5.49
  -2   4   2  155.07    5.23
  -2   4   3  141.71    4.66
  -2   4   4  130.42    6.12
  -2   4   5   97.39    6.13
  -2   4   6   93.22    8.03
  -2   4   7   93.88    9.26
  -2   4   8   31.99    8.06
  -2   4   9   68.42    9.43
  -2   4  10   33.25    9.17
  -2   4  11   64.56   13.68
  -2   4  12   42.34   15.39
  -2   5 -11    1.44   13.09
  -2   5 -10   26.22   12.20
  -2   5  -9   67.25   12.82
  -2   5  -8    8.10    9.40
  -2   5  -7   18.98    9.30
  -2   5  -6    6.29    8.38
  -2   5  -5   14.46    5.79
  -2   5  -4   24.63   11.15
  -2   5  -3   29.13    6.51
  -2   5  -2    5.02    5.48
  -2   5  -1   22.19    5.41
  -2   5   0    3.97    5.10
  -2   5   1   34.39    3.48
  -2   5   2   28.23    3.86
  -2   5   3   12.02    5.63
  -2   5   4   11.88    6.14
  -2   5   5  179.85    9.66
  -2   5   6   58.56    8.22
  -2   5   7   57.38    8.26
  -2   5   8    6.70    7.56
  -2   5   9   23.32    8.64
  -2   5  10    3.70   11.95
  -2   5  11   32.65   10.64
  -2   6 -10   45.72   14.31
  -2   6  -9   69.54   13.76
  -2   6  -4  125.76   14.00
  -2   6  -3   64.69    7.74
  -2   6  -2   58.99    6.65
  -2   6  -1   55.12    7.37
  -2   6   0   48.35    6.88
  -2   6   1   67.50    8.94
  -2   6   2   73.37   11.08
  -2   6   3   64.47    7.60
  -2   6   4   80.78    8.12
  -2   6   5   95.77    9.25
  -2   6   6   73.91    9.64
  -2   6   7   51.75    9.06
  -2   6   8   18.63    9.04
  -2   6   9   46.60   10.02
  -2   6  10   27.20   16.06
  -2   6  11   51.10   16.31
  -2   7  -4   49.48   14.21
  -2   7  -3   34.62   14.39
  -2   7  -2   20.68   12.00
  -2   7  -1   24.06    6.20
  -2   7   0   33.53    7.20
  -2   7   1   47.56    6.70
  -2   7   2   44.76   19.66
  -2   7   3   29.40    7.36
  -2   7   4   32.71    8.41
  -2   7   5   54.37    8.59
  -2   7   6   31.41    8.68
  -2   7   7   30.79    8.81
  -2   7   8   12.53    9.25
  -2   7   9   18.36    9.91
  -2   8  -4   15.27   14.10
  -2   8  -3    8.03   13.70
  -2   8  -2    0.35   14.15
  -2   8  -1   13.29   13.76
  -2   8   0   34.70   14.30
  -2   8   1   19.39   12.75
  -2   8   2    2.58   12.57
  -2   8   3    1.08   13.13
  -2   8   4    4.06   13.98
  -2   8   5   34.13   16.08
  -2   8   6   15.28   15.26
  -2   8   7   11.62   13.86
  -1  -9  -4   67.25   17.08
  -1  -9  -3    3.77   13.57
  -1  -9  -2   21.83   12.62
  -1  -9  -1   15.78   13.99
  -1  -9   0   28.91   14.65
  -1  -9   1   11.99   14.27
  -1  -9   2   23.39   13.71
  -1  -9   3   16.80   13.66
  -1  -9   4   28.42   15.16
  -1  -8  -7    4.87   14.10
  -1  -8  -6    9.27    9.86
  -1  -8  -5    2.24   13.98
  -1  -8  -4   22.17   13.12
  -1  -8  -3   18.93   12.78
  -1  -8  -2    5.99   11.91
  -1  -8  -1    4.39   11.16
  -1  -8   0   11.00   12.30
  -1  -8   1    5.70   11.24
  -1  -8   2    5.43    8.76
  -1  -8   3    1.12    8.75
  -1  -8   4    9.66    9.19
  -1  -8   5   25.26   10.30
  -1  -8   6   35.54   14.69
  -1  -8   7    0.51   13.45
  -1  -7  -9   40.82   16.33
  -1  -7  -8    2.42   13.22
  -1  -7  -7   18.13   13.17
  -1  -7  -6   25.40   14.14
  -1  -7  -5   51.73   14.15
  -1  -7  -4   73.98   13.24
  -1  -7  -3   12.49   11.04
  -1  -7  -2   38.33   11.01
  -1  -7  -1   25.06   11.28
  -1  -7   0   41.01   12.11
  -1  -7   1   20.54    8.92
  -1  -7   2   22.65    7.73
  -1  -7   3   16.57    7.67
  -1  -7   4   29.71    9.05
  -1  -7   5   42.37   10.50
  -1  -7   6   46.32   10.10
  -1  -7   7   16.85    9.56
  -1  -7   8   13.39   12.21
  -1  -6 -10   52.49    9.54
  -1  -6  -9   53.85   11.43
  -1  -6  -8    6.76   13.11
  -1  -6  -7   23.70   12.07
  -1  -6  -6   70.76    9.56
  -1  -6  -5  126.68   15.53
  -1  -6  -4  193.12   15.72
  -1  -6  -3   26.15   10.54
  -1  -6  -2   52.60   10.89
  -1  -6  -1   65.58   10.89
  -1  -6   0   66.66   11.00
  -1  -6   1   50.78    8.49
  -1  -6   2   50.49    7.46
  -1  -6   3   40.73    7.77
  -1  -6   4   92.34    9.11
  -1  -6   5   93.42   10.17
  -1  -6   6   84.85   12.85
  -1  -6   7   28.29    8.62
  -1  -6   8   16.23   12.32
  -1  -6   9   33.14   12.33
  -1  -6  10   24.60   13.36
  -1  -5 -11   18.01   11.68
  -1  -5 -10   73.08    9.02
  -1  -5  -9  106.91   14.35
  -1  -5  -8    0.60   11.75
  -1  -5  -7   11.13   10.89
  -1  -5  -6   25.18   11.18
  -1  -5  -5   22.58   10.48
  -1  -5  -4   23.46   10.09
  -1  -5  -3   26.10    5.56
  -1  -5  -2   13.02    3.92
  -1  -5  -1   46.72    9.21
  -1  -5   0   65.19    8.93
  -1  -5   1   48.32    7.65
  -1  -5   2    8.09    6.49
  -1  -5   3    7.63    6.23
  -1  -5   4   14.13    2.54
  -1  -5   5  106.79    5.74
  -1  -5   6   91.86   19.32
  -1  -5   7   26.39    7.88
  -1  -5   8    6.81    7.80
  -1  -5   9   20.16    8.92
  -1  -5  10    5.30    8.64
  -1  -5  11   28.70   13.65
  -1  -4 -12   36.36   17.98
  -1  -4 -11   58.20   11.71
  -1  -4 -10   68.98   11.41
  -1  -4  -9  106.47   14.20
  -1  -4  -8    9.16    8.17
  -1  -4  -7   26.62   10.90
  -1  -4  -6  110.65   12.44
  -1  -4  -5  269.99   17.04
  -1  -4  -4  311.84   14.33
  -1  -4  -3   50.11    5.95
  -1  -4  -2  108.02    5.21
  -1  -4  -1   55.34    3.71
  -1  -4   0   61.46    5.82
  -1  -4   1   57.02    6.31
  -1  -4   2   50.37    4.43
  -1  -4   3   79.01    4.33
  -1  -4   4  154.40    4.52
  -1  -4   5  146.55    4.92
  -1  -4   6   93.85    6.54
  -1  -4   7   50.17    6.98
  -1  -4   8   10.46    6.53
  -1  -4   9   24.11    7.93
  -1  -4  10   10.79    7.81
  -1  -4  11   45.76    9.62
  -1  -4  12   32.25   10.37
  -1  -3 -12   22.38   13.90
  -1  -3 -11  107.16   12.41
  -1  -3 -10  191.82   13.05
  -1  -3  -9  277.48   25.47
  -1  -3  -8   28.45   16.19
  -1  -3  -7  141.73   34.66
  -1  -3  -6  169.07   14.21
  -1  -3  -5  278.47   13.33
  -1  -3  -4  240.89   23.87
  -1  -3  -3  109.22    5.43
  -1  -3  -2  178.00    5.39
  -1  -3  -1  299.05   13.43
  -1  -3   0  371.21   10.20
  -1  -3   1  250.96   15.06
  -1  -3   2  104.74    6.77
  -1  -3   3   89.43    4.18
  -1  -3   4  121.56    5.11
  -1  -3   5  329.36    7.68
  -1  -3   6  205.04    7.86
  -1  -3   7  147.28   11.53
  -1  -3   8   55.27    7.93
  -1  -3   9   71.94   10.77
  -1  -3  10   28.59   11.20
  -1  -3  11   89.17   14.57
  -1  -3  12   69.48   14.54
  -1  -3  13   45.41   16.15
  -1  -2 -12   12.79   10.87
  -1  -2 -11   82.88   11.22
  -1  -2 -10  114.16   11.38
  -1  -2  -9  211.38    8.77
  -1  -2  -8   18.02    8.13
  -1  -2  -7   59.37    8.11
  -1  -2  -6   56.55    6.91
  -1  -2  -5  146.42    8.70
  -1  -2  -4  128.28    7.27
  -1  -2  -3   26.29    2.85
  -1  -2  -2  118.01    3.43
  -1  -2  -1  166.48    5.64
  -1  -2   0  185.14    7.01
  -1  -2   1   98.41    3.27
  -1  -2   2   18.07    1.80
  -1  -2   3   35.66    3.27
  -1  -2   4   29.63    3.36
  -1  -2   5  243.57    6.34
  -1  -2   6  120.21    6.57
  -1  -2   7   85.35   13.29
  -1  -2   8    2.23    8.70
  -1  -2   9   32.19   11.31
  -1  -2  10    8.32   10.51
  -1  -2  11   68.63   14.49
  -1  -2  12   30.15   13.33
  -1  -2  13   14.26   13.28
  -1  -1 -13   15.29   15.27
  -1  -1 -12   49.86    9.86
  -1  -1 -11  123.99   11.48
  -1  -1 -10  119.10   16.60
  -1  -1  -9  148.30   18.05
  -1  -1  -8  108.97   13.97
  -1  -1  -7   61.54    9.42
  -1  -1  -6  182.22   11.90
  -1  -1  -5  438.89   13.97
  -1  -1  -4  527.17   16.97
  -1  -1  -3  237.18   12.33
  -1  -1  -2  375.57   16.44
  -1  -1  -1  185.27    2.84
  -1  -1   0  258.48   22.80
  -1  -1   1   69.49    2.66
  -1  -1   2   98.14    3.11
  -1  -1   3  406.06   18.94
  -1  -1   4  348.17   27.32
  -1  -1   5  392.96   10.23
  -1  -1   6  162.21    5.99
  -1  -1   7  108.75   10.42
  -1  -1   8    3.32    4.83
  -1  -1   9   43.30    9.93
  -1  -1  10    5.81   10.69
  -1  -1  11   23.61    7.92
  -1  -1  12   29.77   13.19
  -1  -1  13   28.34   10.46
  -1   1 -12   52.07    8.87
  -1   1 -11  122.00   11.23
  -1   1 -10   88.05    9.64
  -1   1  -9   91.58    7.98
  -1   1  -8   54.83    9.70
  -1   1  -7   72.01    6.49
  -1   1  -6  179.74   11.96
  -1   1  -5  404.67   27.90
  -1   1  -4  515.79   11.40
  -1   1  -3  401.59    9.16
  -1   1  -2  431.22   15.10
  -1   1  -1  338.18    2.94
  -1   1   0  710.52   19.06
  -1   1   1   44.80    3.63
  -1   1   2  133.40    4.27
  -1   1   3  423.40   24.04
  -1   1   4  283.42   19.60
  -1   1   5  565.76   18.32
  -1   1   6  147.67   11.20
  -1   1   7   92.92   10.80
  -1   1   8   11.25    9.16
  -1   1   9   65.17   12.30
  -1   1  10   14.47   10.21
  -1   1  11   25.82    8.56
  -1   1  12    0.98   13.30
  -1   1  13   40.50   14.01
  -1   2 -12   25.81   10.42
  -1   2 -11   79.60   10.92
  -1   2 -10   96.80    9.80
  -1   2  -9  128.67   11.16
  -1   2  -8   74.21    9.09
  -1   2  -7   55.65    7.97
  -1   2  -6   69.05    6.62
  -1   2  -5  103.79    6.97
  -1   2  -4  145.97    9.99
  -1   2  -3  107.04    5.53
  -1   2  -2  140.85    3.96
  -1   2  -1  243.98   19.94
  -1   2   0  985.01   49.70
  -1   2   1  191.91    6.15
  -1   2   2   89.55    4.78
  -1   2   3  127.78    4.78
  -1   2   4   32.98    3.39
  -1   2   5  356.76    9.48
  -1   2   6   96.13    7.44
  -1   2   7   74.10   10.40
  -1   2   8   29.50   11.12
  -1   2   9   43.86   11.82
  -1   2  10    8.22   11.16
  -1   2  11   39.16   14.36
  -1   2  12   22.17    9.35
  -1   3 -12   34.75   10.81
  -1   3 -11   90.13   11.07
  -1   3 -10  134.98   14.13
  -1   3  -9  207.61   11.44
  -1   3  -8  148.03   10.11
  -1   3  -7  137.47   11.72
  -1   3  -6  137.87   11.57
  -1   3  -5  216.69   12.40
  -1   3  -4  286.59    6.85
  -1   3  -3  232.01    6.81
  -1   3  -2  190.24    7.58
  -1   3  -1  319.70    6.03
  -1   3   0 1423.91   30.64
  -1   3   1  457.58    6.97
  -1   3   2  193.87    5.74
  -1   3   3   25.95    3.33
  -1   3   4   70.31    4.14
  -1   3   5  581.54   27.23
  -1   3   6  200.93    9.47
  -1   3   7  138.54    9.20
  -1   3   8   69.09   10.31
  -1   3   9   91.40    9.45
  -1   3  10   45.19    8.47
  -1   3  11   52.79    9.41
  -1   3  12   53.56   16.36
  -1   4 -12   42.71   15.81
  -1   4 -11   60.36   14.42
  -1   4 -10   57.21   12.75
  -1   4  -9   40.41   12.72
  -1   4  -8   42.62   11.75
  -1   4  -7   20.24    9.99
  -1   4  -6   77.79   10.56
  -1   4  -5  203.11   15.56
  -1   4  -4  277.30    8.98
  -1   4  -3  213.91   16.44
  -1   4  -2  105.86    4.56
  -1   4  -1   79.42    7.36
  -1   4   0  427.74   12.05
  -1   4   1   31.01    4.14
  -1   4   2   38.42    4.22
  -1   4   3   73.83    7.61
  -1   4   4  104.31    7.01
  -1   4   5  343.22   24.66
  -1   4   6   90.21    8.01
  -1   4   7   31.02    6.68
  -1   4   8   18.51    7.07
  -1   4   9   13.66    7.75
  -1   4  10   10.65    8.08
  -1   4  11    7.89    8.31
  -1   4  12    0.36   14.74
  -1   5 -11   25.11   14.48
  -1   5 -10   69.48   14.77
  -1   5  -9   87.11   14.07
  -1   5  -8   63.93   12.61
  -1   5  -7   34.40   10.14
  -1   5  -6   20.99    6.40
  -1   5  -5   47.61    8.34
  -1   5  -4   25.61    5.79
  -1   5  -3   25.93    6.34
  -1   5  -2   29.31    4.41
  -1   5  -1   86.36    6.15
  -1   5   0  502.94   25.72
  -1   5   1  106.47    7.56
  -1   5   2   25.30    4.66
  -1   5   3    1.64    4.93
  -1   5   4    5.73    5.40
  -1   5   5  103.99   10.83
  -1   5   6   30.75    6.92
  -1   5   7   29.23    7.67
  -1   5   8   44.79    7.92
  -1   5   9   34.53   12.05
  -1   5  10   12.98    8.46
  -1   5  11   13.24   13.63
  -1   6  -6   64.18    9.18
  -1   6  -5  146.69   12.08
  -1   6  -4  112.99   12.07
  -1   6  -3   87.49    8.76
  -1   6  -2   49.47    4.94
  -1   6  -1   44.94    5.07
  -1   6   0  257.56    9.06
  -1   6   1   47.51    4.79
  -1   6   2   42.53    5.60
  -1   6   3   25.38    8.13
  -1   6   4   85.54    7.78
  -1   6   5  183.70   10.02
  -1   6   6   68.97   11.00
  -1   6   7   30.25    7.53
  -1   6   8   38.44    9.12
  -1   6   9    8.12    8.39
  -1   6  10   11.48   13.10
  -1   7  -5   94.78   12.41
  -1   7  -4   52.28   11.58
  -1   7  -3   41.77    8.67
  -1   7  -2   27.96    8.25
  -1   7  -1   28.63    8.16
  -1   7   0  184.40   21.12
  -1   7   1   33.33    9.60
  -1   7   2   21.75    5.66
  -1   7   3   12.13    6.49
  -1   7   4   28.00    9.48
  -1   7   5   66.66    8.68
  -1   7   6   31.82    8.15
  -1   7   7   17.39    8.01
  -1   7   8   33.77    9.10
  -1   7   9   12.27   12.51
  -1   8  -3    6.69    8.94
  -1   8  -2    4.51    8.53
  -1   8  -1   14.23    9.14
  -1   8   0  129.00   12.78
  -1   8   1   21.63   13.03
  -1   8   2    8.84   12.66
  -1   8   3    1.40   13.00
  -1   8   4    7.92   13.07
  -1   8   5   22.33   15.14
  -1   8   6    7.07   14.22
  -1   8   7   12.94   15.16
   0  -9   2    6.82   13.46
   0  -8  -5   21.71   12.37
   0  -8  -4    5.21   12.01
   0  -8  -3    9.55   11.06
   0  -8  -2   12.61   10.97
   0  -8  -1   24.20   11.75
   0  -8   0   71.16   13.09
   0  -8   1   36.48    9.05
   0  -8   2    1.54    8.38
   0  -8   3    1.49    8.33
   0  -8   4    0.21    8.59
   0  -8   5   25.66    9.42
   0  -8   6   10.43   11.97
   0  -8   7    3.58   12.78
   0  -8   8   14.09   13.53
   0  -7  -9   48.47   10.70
   0  -7  -8   35.06   10.00
   0  -7  -7   34.22   11.93
   0  -7  -6   50.15   13.39
   0  -7  -5   55.68   12.95
   0  -7  -4   45.16   11.64
   0  -7  -3   49.09   11.52
   0  -7  -2   31.01   10.28
   0  -7  -1   50.03   10.82
   0  -7   0  112.76   18.59
   0  -7   1   40.13    8.10
   0  -7   2    8.96    7.11
   0  -7   3   13.75    7.76
   0  -7   4   19.20    7.53
   0  -7   5   93.93   10.02
   0  -7   6   38.52    9.12
   0  -7   7   16.06   13.20
   0  -7   8   14.58    9.03
   0  -7   9   24.89   14.05
   0  -6 -11   29.03   16.29
   0  -6 -10   31.30   10.33
   0  -6  -9   36.79    9.97
   0  -6  -8   58.73   12.24
   0  -6  -7   52.10   12.42
   0  -6  -6  104.05   12.99
   0  -6  -5  128.72    9.05
   0  -6  -4  102.23   13.00
   0  -6  -3   79.00   10.69
   0  -6  -2   59.97   10.08
   0  -6  -1   75.61   10.60
   0  -6   0  204.12   10.57
   0  -6   1   71.93    7.66
   0  -6   2   29.22    7.17
   0  -6   3   39.03    7.29
   0  -6   4   61.32   12.46
   0  -6   5  174.29   19.51
   0  -6   6   56.52    8.90
   0  -6   7   30.69    8.52
   0  -6   8    7.70    7.95
   0  -6   9   22.05    9.16
   0  -6  10   10.64   12.97
   0  -5 -11   48.67   19.44
   0  -5 -10   60.88   10.17
   0  -5  -9   79.59    9.97
   0  -5  -8  148.65   12.21
   0  -5  -7   42.21   11.10
   0  -5  -6   70.81   11.20
   0  -5  -5   46.61    7.22
   0  -5  -4   22.43    8.24
   0  -5  -3   33.09    9.46
   0  -5  -2   75.53    5.64
   0  -5  -1  179.71    7.94
   0  -5   0  599.41   18.34
   0  -5   1  156.05   10.18
   0  -5   2   31.15    2.25
   0  -5   3    0.87    2.35
   0  -5   4    3.50    3.66
   0  -5   5  117.40    6.69
   0  -5   6   30.74    5.19
   0  -5   7   63.16    9.48
   0  -5   8   45.28    8.26
   0  -5   9   81.82    9.98
   0  -5  10   28.81   13.03
   0  -5  11   20.97   14.58
   0  -4 -12   38.19   20.83
   0  -4 -11   52.18   11.33
   0  -4 -10   30.47    6.73
   0  -4  -9   26.34    7.98
   0  -4  -8   82.19    9.42
   0  -4  -7   55.60   10.91
   0  -4  -6  115.42   11.91
   0  -4  -5  211.42   12.59
   0  -4  -4  163.81   12.37
   0  -4  -3  106.80    6.99
   0  -4  -2   63.76    9.02
   0  -4  -1   42.40    7.53
   0  -4   0  443.75    7.93
   0  -4   1   19.53    4.98
   0  -4   2   25.41    2.54
   0  -4   3   28.01    2.64
   0  -4   4   98.19    4.06
   0  -4   5  456.02    8.32
   0  -4   6   70.98    7.28
   0  -4   7   28.78    6.57
   0  -4   8    7.42    9.21
   0  -4   9   11.55    9.65
   0  -4  10   17.92   11.88
   0  -4  11   25.24   13.10
   0  -4  12   19.88   13.27
   0  -4  13   27.84   14.82
   0  -3 -12   49.43   11.45
   0  -3 -11  102.65   12.02
   0  -3 -10  119.51   10.20
   0  -3  -9  156.51    9.11
   0  -3  -8  352.48   11.06
   0  -3  -7  178.85    9.40
   0  -3  -6  220.78   13.68
   0  -3  -5  380.87   16.30
   0  -3  -4  285.68   11.91
   0  -3  -3  206.02    7.99
   0  -3  -2  330.69    6.21
   0  -3  -1  593.06    9.51
   0  -3   0 3353.77   17.69
   0  -3   1  709.22   26.92
   0  -3   2  288.63    3.88
   0  -3   3   40.76    2.63
   0  -3   4  102.52    5.65
   0  -3   5  637.63   83.24
   0  -3   6  148.80    5.48
   0  -3   7  163.37   13.54
   0  -3   8  112.38   11.40
   0  -3   9  156.65   16.17
   0  -3  10   90.65   13.34
   0  -3  11   68.19   14.69
   0  -3  12   18.86   13.42
   0  -3  13   39.67   15.07
   0  -2 -13   16.67   12.38
   0  -2 -12   13.18   10.04
   0  -2 -11   44.94    9.87
   0  -2 -10   59.65   15.00
   0  -2  -9   69.00    5.87
   0  -2  -8  229.92   42.75
   0  -2  -7   66.88    6.12
   0  -2  -6   82.17    6.49
   0  -2  -5  233.71   12.39
   0  -2  -4  135.40   10.07
   0  -2  -3   54.41    3.54
   0  -2  -2  102.33    5.40
   0  -2  -1  109.45    8.62
   0  -2   0 3118.43  162.05
   0  -2   1  170.17    1.92
   0  -2   2   85.49    5.22
   0  -2   3    0.20    2.25
   0  -2   4   48.05    3.73
   0  -2   5  493.02   11.85
   0  -2   6   70.31    9.72
   0  -2   7   56.36    9.01
   0  -2   8  104.88   13.87
   0  -2   9   82.85   11.67
   0  -2  10   47.27   13.67
   0  -2  11   23.87   12.75
   0  -2  12   10.79   13.81
   0  -2  13   26.08   15.41
   0  -1 -13   59.39   33.46
   0  -1 -12   38.85   12.74
   0  -1 -11   33.29    8.94
   0  -1 -10   32.49    8.64
   0  -1  -9   54.96   10.85
   0  -1  -8   73.75    3.95
   0  -1  -7   40.44    4.61
   0  -1  -6  101.71    5.51
   0  -1  -5  747.98   29.00
   0  -1  -4  399.97   14.63
   0  -1  -3  150.58    4.87
   0  -1  -2   67.12    3.53
   0  -1  -1  134.36    2.51
   0  -1   0 2600.07    9.50
   0  -1   1   32.09    3.31
   0  -1   2   14.75    2.03
   0  -1   3   20.25    2.02
   0  -1   4  262.45   17.48
   0  -1   5  761.57   19.40
   0  -1   6  101.96   10.20
   0  -1   7   13.17    7.76
   0  -1   8   28.63    8.79
   0  -1   9   15.56    7.78
   0  -1  10   53.13   12.85
   0  -1  11   29.14   10.46
   0  -1  12   42.12   14.42
   0   1 -13   55.03   21.89
   0   1 -12   17.36    8.25
   0   1 -11   24.33    7.63
   0   1 -10   15.58   10.55
   0   1  -9   37.00   13.07
   0   1  -8   21.24    3.58
   0   1  -7   35.76    9.10
   0   1  -6   99.32    7.83
   0   1  -5  925.81   39.40
   0   1  -4  239.38    7.09
   0   1  -3   17.08    2.39
   0   1  -2   13.49    2.27
   0   1  -1   28.63    3.28
   0   1   0 2594.90    9.70
   0   1   1  127.58    2.39
   0   1   2   78.51    3.88
   0   1   3  148.94    4.74
   0   1   4  388.39    9.91
   0   1   5  501.62   16.47
   0   1   6  126.39   12.03
   0   1   7   15.72    7.48
   0   1   8   62.14   11.40
   0   1   9    0.06   11.86
   0   1  10   44.28   12.92
   0   1  11   52.37   13.57
   0   1  12   17.53   10.19
   0   1  13   40.10   12.72
   0   2 -13   27.21   16.38
   0   2 -12   14.83    9.88
   0   2 -11   38.12    9.24
   0   2 -10   58.04   16.93
   0   2  -9   81.20   19.11
   0   2  -8   67.06    4.66
   0   2  -7   64.53    6.66
   0   2  -6   79.24    4.95
   0   2  -5  458.63   35.87
   0   2  -4   49.04    3.38
   0   2  -3    2.30    2.81
   0   2  -2   90.40   17.85
   0   2  -1  169.82    2.45
   0   2   0 3160.62   39.13
   0   2   1  117.02   11.06
   0   2   2  102.46   10.13
   0   2   3   63.35    4.54
   0   2   4  127.20    9.32
   0   2   5  221.03   13.36
   0   2   6   94.14    6.63
   0   2   7   71.43    6.52
   0   2   8  206.73   34.91
   0   2   9   76.39    7.89
   0   2  10   58.24    8.30
   0   2  11   53.91   14.45
   0   2  12   14.41   13.91
   0   3 -12   28.08   10.51
   0   3 -11   71.79   10.78
   0   3 -10   67.07    9.02
   0   3  -9  153.46   12.11
   0   3  -8  129.38    8.70
   0   3  -7  144.00    9.38
   0   3  -6  169.79   15.57
   0   3  -5  523.16   64.36
   0   3  -4   90.83    5.59
   0   3  -3   47.22    6.83
   0   3  -2  274.41    7.38
   0   3  -1  718.11   24.00
   0   3   0 3342.64   48.97
   0   3   1  607.46   42.79
   0   3   2  357.11   16.81
   0   3   3  209.51    6.53
   0   3   4  254.88    6.64
   0   3   5  327.90   12.21
   0   3   6  230.17    8.85
   0   3   7  169.63    8.87
   0   3   8  309.19   12.58
   0   3   9  138.86    9.92
   0   3  10  135.72    9.70
   0   3  11  126.15   17.10
   0   3  12   51.27   16.97
   0   4 -12    0.06   14.83
   0   4 -11   27.75   13.08
   0   4 -10   21.49   12.62
   0   4  -9   26.15   11.63
   0   4  -8    5.21   10.53
   0   4  -7   32.95    5.19
   0   4  -6   88.35   14.74
   0   4  -5  394.91   15.09
   0   4  -4  112.50    9.45
   0   4  -3   36.93    7.50
   0   4  -2   29.43    6.17
   0   4  -1   35.19    2.65
   0   4   0  409.84   22.54
   0   4   1   59.74   11.07
   0   4   2   70.30    4.50
   0   4   3  115.52    6.54
   0   4   4  170.64   10.36
   0   4   5  214.16   11.88
   0   4   6  127.22    7.75
   0   4   7   50.88    6.83
   0   4   8   74.54   17.97
   0   4   9   31.85    7.67
   0   4  10   26.22   12.84
   0   4  11   53.38   14.90
   0   4  12   25.93   15.52
   0   5 -11   23.48   15.38
   0   5 -10   17.97   12.45
   0   5  -9   64.40   13.93
   0   5  -7   58.73    8.40
   0   5  -6   23.94    6.79
   0   5  -5  115.12   10.99
   0   5  -4    3.38    7.42
   0   5  -3    3.71    7.87
   0   5  -2   41.38    6.26
   0   5  -1  176.99    6.95
   0   5   0  624.08   14.94
   0   5   1  191.80   12.51
   0   5   2   80.67    5.22
   0   5   3   38.16    5.03
   0   5   4   19.02    5.72
   0   5   5   37.37    7.64
   0   5   6   42.86    5.64
   0   5   7   47.63    7.19
   0   5   8  128.64    9.11
   0   5   9  104.81   14.47
   0   5  10   70.17   14.93
   0   5  11   37.62   14.88
   0   6  -6   57.08   10.40
   0   6  -5  184.03   13.76
   0   6  -4   54.28   11.35
   0   6  -3   34.94    9.78
   0   6  -2   24.76    7.89
   0   6  -1   82.95    9.48
   0   6   0  229.67    6.96
   0   6   1  113.41    8.54
   0   6   2   62.11    5.19
   0   6   3   81.95   11.14
   0   6   4   98.52   13.15
   0   6   5  129.69    7.35
   0   6   6  105.23   11.15
   0   6   7   45.28    7.89
   0   6   8   58.41    8.46
   0   6   9   46.42   12.92
   0   6  10   39.92   13.38
   0   6  11   56.11   15.30
   0   7  -6   36.57   10.35
   0   7  -5   98.08   13.47
   0   7  -4   50.81   11.62
   0   7  -3   25.16   10.78
   0   7  -2    7.54    7.61
   0   7  -1   43.40    9.15
   0   7   0  113.43   10.06
   0   7   1   68.00    9.20
   0   7   2   36.56    8.32
   0   7   3   44.08    8.75
   0   7   4   48.89    8.87
   0   7   5   57.55    9.88
   0   7   6   55.93   13.38
   0   7   7   25.74    8.15
   0   7   8   30.37   12.07
   0   7   9   36.43   13.45
   0   7  10   33.62   15.18
   0   8  -5   17.13   11.82
   0   8  -4    2.84   11.62
   0   8  -3    0.16   12.10
   0   8  -2    0.10   12.52
   0   8  -1   44.89   10.18
   0   8   0   75.66   10.61
   0   8   1   37.88    9.86
   0   8   2   18.67    9.16
   0   8   3    6.51    9.42
   0   8   4    2.48    9.27
   0   8   5    8.90    9.66
   0   8   6   22.49   14.36
   0   9  -4   22.36   14.96
   0   9  -3   14.44   14.30
   0   9  -2    4.24   13.59
   0   9  -1    9.58   15.34
   0   9   0    7.75   10.60
   0   9   1    4.43   14.16
   0   9   2   19.84   16.04
   0   9   3   21.79   15.48
   0   9   4   36.99   17.27
   0   9   5   50.58   17.61
   1  -9  -1    0.38   15.72
   1  -9   0   35.58   15.87
   1  -9   1    8.96    8.18
   1  -9   2   14.13    9.22
   1  -9   3   30.74   14.13
   1  -8  -6   30.56   16.47
   1  -8  -5   19.80   15.97
   1  -8  -4    0.14   14.57
   1  -8  -3    1.25   13.94
   1  -8   0  128.26   15.40
   1  -8   1   26.25   10.66
   1  -8   2   11.18   11.95
   1  -8   3    3.91    8.40
   1  -8   4    5.59    8.57
   1  -8   5   26.05   15.35
   1  -7  -9    1.54   14.83
   1  -7  -8   40.28   14.80
   1  -7  -7   19.47   14.48
   1  -7  -6   25.70   14.16
   1  -7  -5   68.98   15.00
   1  -7  -4   31.47    8.07
   1  -7  -3   14.95    9.15
   1  -7  -2   23.51    8.77
   1  -7  -1   24.01    6.57
   1  -7   0  183.86   24.73
   1  -7   1   33.46    6.99
   1  -7   2   34.58    7.19
   1  -7   3   49.95    7.44
   1  -7   4   56.42    8.37
   1  -7   5   79.13    7.09
   1  -7   6   29.04    8.40
   1  -7   7   11.75   10.09
   1  -7   8   18.65   12.03
   1  -7   9   25.01   13.30
   1  -6 -11   14.51   14.55
   1  -6 -10   11.31    9.26
   1  -6  -9   10.93    8.50
   1  -6  -8   45.25    9.50
   1  -6  -7   36.08    7.92
   1  -6  -6   64.46    8.96
   1  -6  -5  205.88   18.19
   1  -6  -4  106.17    7.42
   1  -6  -3   43.27    8.90
   1  -6  -2   48.28    8.94
   1  -6  -1   38.19    5.75
   1  -6   0  280.60   12.43
   1  -6   1   57.19    9.02
   1  -6   2   56.01    9.35
   1  -6   3   96.59    5.55
   1  -6   4  133.47    8.65
   1  -6   5  149.80    7.29
   1  -6   6   73.42    8.65
   1  -6   7   24.76   16.80
   1  -6   8   26.52    8.85
   1  -6   9   29.59    9.31
   1  -6  10   53.82   14.16
   1  -5 -12   10.20   13.04
   1  -5 -11   10.27   12.15
   1  -5 -10   19.19    8.54
   1  -5  -9   36.25    8.75
   1  -5  -8   66.07    8.55
   1  -5  -7   29.84    7.79
   1  -5  -6   29.02    6.77
   1  -5  -5  108.93    8.12
   1  -5  -4    0.93    7.02
   1  -5  -3    4.16    6.82
   1  -5  -2   33.61    6.99
   1  -5  -1  103.56    7.16
   1  -5   0  526.84   10.56
   1  -5   1   85.83    5.74
   1  -5   2   32.68    5.17
   1  -5   3   26.28    3.91
   1  -5   4   30.38    4.21
   1  -5   5   46.68    4.62
   1  -5   6   23.08    4.24
   1  -5   7   28.72    7.14
   1  -5   8   86.01   12.96
   1  -5   9   90.16   13.65
   1  -5  10   79.27   14.92
   1  -5  11   30.40   14.23
   1  -4 -12   39.35   24.69
   1  -4 -11   12.76   12.10
   1  -4 -10   10.27    7.75
   1  -4  -9   17.78    7.39
   1  -4  -8   22.93    7.14
   1  -4  -7   35.36    8.74
   1  -4  -6   93.14    8.31
   1  -4  -5  334.14   10.89
   1  -4  -4  139.62    7.37
   1  -4  -3   94.04    8.17
   1  -4  -2   44.12    6.58
   1  -4  -1   48.28    5.05
   1  -4   0  363.87   37.04
   1  -4   1  113.72    4.63
   1  -4   2  113.79    5.15
   1  -4   3  232.19    6.27
   1  -4   4  289.55   12.77
   1  -4   5  188.05    7.34
   1  -4   6   90.90    6.10
   1  -4   7   29.20   10.06
   1  -4   8   26.54   11.12
   1  -4   9   46.65   13.19
   1  -4  10   59.05   13.14
   1  -4  11   64.11   15.02
   1  -4  12   35.34   15.91
   1  -3 -13   81.62   16.03
   1  -3 -12   41.45   17.24
   1  -3 -11   59.78   10.51
   1  -3 -10   40.17    7.18
   1  -3  -9   89.48    8.65
   1  -3  -8   76.98    7.56
   1  -3  -7  148.02    9.18
   1  -3  -6  199.04    8.56
   1  -3  -5  513.15   22.73
   1  -3  -4   73.99    5.53
   1  -3  -3   36.84    5.20
   1  -3  -2  228.64   19.95
   1  -3  -1  489.48   25.91
   1  -3   0 1485.44   42.02
   1  -3   1  341.19    8.91
   1  -3   2  205.17   13.54
   1  -3   3  230.18    6.73
   1  -3   4  299.76   14.00
   1  -3   5  204.54   12.25
   1  -3   6  147.67    3.84
   1  -3   7  125.90   12.34
   1  -3   8  162.11   14.60
   1  -3   9  225.43   16.26
   1  -3  10  163.65   18.27
   1  -3  11  115.50   16.55
   1  -3  12   56.84   15.85
   1  -2 -13   34.02   12.06
   1  -2 -12   15.48   10.37
   1  -2 -11   31.10    9.44
   1  -2 -10   14.34    5.67
   1  -2  -9   44.71    6.68
   1  -2  -8   12.04    5.60
   1  -2  -7   79.39    6.58
   1  -2  -6   91.16    6.91
   1  -2  -5  372.90    9.08
   1  -2  -4   44.98    5.14
   1  -2  -3  160.06    4.44
   1  -2  -2   96.40    3.50
   1  -2  -1  219.78   10.78
   1  -2   0  928.49   35.37
   1  -2   1  287.24   18.59
   1  -2   2  169.40    2.89
   1  -2   3  135.28    4.48
   1  -2   4  161.88    8.62
   1  -2   5   86.47   11.14
   1  -2   6   83.94    9.71
   1  -2   7   60.21   11.40
   1  -2   8   64.08   12.44
   1  -2   9  169.88   17.27
   1  -2  10  123.86   15.26
   1  -2  11   74.50   15.80
   1  -2  12   32.60   15.27
   1  -2  13    0.19   15.64
   1  -1 -13   49.39   13.36
   1  -1 -12   50.51   10.14
   1  -1 -11   56.88    9.39
   1  -1 -10   13.10   14.46
   1  -1  -9   30.76    4.79
   1  -1  -8   12.01    4.50
   1  -1  -7   84.26    6.56
   1  -1  -6  172.16    6.98
   1  -1  -5  544.74   10.96
   1  -1  -4  312.08    8.59
   1  -1  -3  490.44   46.45
   1  -1  -2  167.15    8.74
   1  -1  -1   34.83    6.42
   1  -1   0  681.38   10.73
   1  -1   1  377.78    3.61
   1  -1   2  507.57   19.67
   1  -1   3  426.66   15.83
   1  -1   4  534.81   10.20
   1  -1   5  392.08   41.54
   1  -1   6  205.99   10.09
   1  -1   7   81.93    9.82
   1  -1   8   44.83    9.67
   1  -1   9  206.91   16.66
   1  -1  10  147.92   16.82
   1  -1  11   98.18   14.26
   1  -1  12   73.39   14.35
   1   1 -13   46.37   10.08
   1   1 -12   28.60    9.25
   1   1 -11   64.31   10.24
   1   1 -10    2.03    9.34
   1   1  -9   18.97    7.21
   1   1  -8    4.57    5.21
   1   1  -7   80.68   14.62
   1   1  -6  161.67    7.58
   1   1  -5  431.77   16.28
   1   1  -4  428.23   20.61
   1   1  -3  461.89   20.49
   1   1  -2  125.87    3.16
   1   1  -1   50.11    1.95
   1   1   0  232.25    3.93
   1   1   1  224.56    3.77
   1   1   2  424.92   31.79
   1   1   3  217.92    9.35
   1   1   4  567.00   85.40
   1   1   5  498.12   23.81
   1   1   6   98.09    9.97
   1   1   7   55.56    8.35
   1   1   8   22.83    5.60
   1   1   9  198.55   17.49
   1   1  10  118.43   14.30
   1   1  11  111.73   15.76
   1   1  12   27.07   10.25
   1   2 -13   27.83   14.47
   1   2 -12   36.57   10.13
   1   2 -11   54.30   10.05
   1   2 -10    4.83    7.95
   1   2  -9   30.24    7.43
   1   2  -8    6.67    3.79
   1   2  -7   77.35    6.29
   1   2  -6  101.62    5.51
   1   2  -5  236.22    6.06
   1   2  -4   40.83    3.34
   1   2  -3   43.86    3.71
   1   2  -2   22.58    3.20
   1   2  -1  107.29    7.30
   1   2   0  146.35    3.80
   1   2   1  178.44    5.88
   1   2   2  135.60    3.71
   1   2   3   27.95    3.07
   1   2   4  125.49    3.72
   1   2   5  178.92   12.51
   1   2   6   59.09    3.91
   1   2   7   55.87    5.83
   1   2   8   10.23    6.08
   1   2   9  218.15    9.85
   1   2  10  122.10   15.85
   1   2  11   70.03   15.44
   1   2  12    7.54   15.12
   1   3 -12   65.05   10.68
   1   3 -11  108.20   11.64
   1   3 -10   32.59    9.17
   1   3  -9   78.98    8.73
   1   3  -8   57.08    5.66
   1   3  -7  152.71    6.34
   1   3  -6  222.95    6.78
   1   3  -5  326.85   16.39
   1   3  -4  145.50   11.15
   1   3  -3   85.63    4.32
   1   3  -2  105.19    9.42
   1   3  -1  240.90   10.96
   1   3   0  366.83   10.40
   1   3   1  303.59    5.86
   1   3   2  188.94    5.59
   1   3   3   84.68    5.15
   1   3   4  246.25   15.89
   1   3   5  294.39    6.27
   1   3   6  164.13    6.30
   1   3   7  123.98    5.63
   1   3   8   14.96    5.36
   1   3   9  356.80   20.29
   1   3  10  166.18   17.48
   1   3  11  116.59   17.69
   1   3  12   32.71   15.40
   1   4 -12   39.80   15.46
   1   4 -11   53.07   10.25
   1   4 -10    2.24    8.86
   1   4  -9   34.37    8.78
   1   4  -8    7.93    4.51
   1   4  -7   36.94    7.34
   1   4  -6   74.76    8.56
   1   4  -5  163.37   21.73
   1   4  -4  165.79   11.06
   1   4  -3  109.84   10.02
   1   4  -2   57.06    8.40
   1   4  -1   51.36    9.18
   1   4   0   50.13    1.92
   1   4   1   48.76    6.34
   1   4   2  118.77    4.53
   1   4   3   60.17    4.83
   1   4   4  358.64    9.42
   1   4   5  282.19    8.51
   1   4   6  100.03    5.60
   1   4   7   32.11    5.06
   1   4   8   10.05    6.63
   1   4   9  120.34   15.79
   1   4  10   67.25   14.63
   1   4  11   67.52   15.78
   1   4  12   45.38   16.89
   1   5  -7   26.61    8.32
   1   5  -6   68.87    9.61
   1   5  -5   73.65   10.89
   1   5  -4   13.44    8.56
   1   5  -3    6.30    8.21
   1   5  -2   13.98    8.98
   1   5  -1   44.31    9.68
   1   5   0   77.40    7.72
   1   5   1   45.92    5.35
   1   5   2   19.59    6.21
   1   5   3   17.37    4.37
   1   5   4   28.37    4.90
   1   5   5   27.10    4.52
   1   5   6    9.04    4.85
   1   5   7   12.97    5.18
   1   5   8    1.93    6.83
   1   5   9  115.86   15.36
   1   5  10   49.95   14.26
   1   5  11   28.28   14.77
   1   6  -7   42.69   11.01
   1   6  -6   75.41   11.77
   1   6  -5  109.25   13.55
   1   6  -4   74.28   11.81
   1   6  -3   51.12   11.08
   1   6  -2   67.27   11.72
   1   6  -1   40.90   11.28
   1   6   0   60.10    7.89
   1   6   1   50.55    7.88
   1   6   2   63.51    5.04
   1   6   3   33.57    5.24
   1   6   4  173.87   19.80
   1   6   5  138.30    7.34
   1   6   6   67.37    6.60
   1   6   7   29.13    7.71
   1   6   8    1.24    7.71
   1   6   9   63.93   13.63
   1   6  10   84.01   15.85
   1   7  -6   54.94   12.43
   1   7  -5   60.37   12.05
   1   7  -4   35.82   12.76
   1   7  -3   15.77   10.83
   1   7  -2   40.19   12.12
   1   7  -1    9.13   11.19
   1   7   0   35.91   12.09
   1   7   1   29.52    8.45
   1   7   2   35.15    8.31
   1   7   3    9.07    7.64
   1   7   4   79.93   12.09
   1   7   5   46.40    9.13
   1   7   6   30.24   13.72
   1   7   7    7.08   13.29
   1   8  -6    5.66   12.48
   1   8  -5   16.16   12.31
   1   8  -4    6.59   12.06
   1   8  -3   11.65   11.69
   1   8  -2   12.40   13.44
   1   8  -1    5.70   12.60
   1   8   0   14.62   13.85
   1   8   1    2.94    8.97
   1   8   2    0.43    9.07
   1   8   3    0.45    9.33
   1   8   4    5.33    9.54
   1   8   5   13.32   13.36
   1   9   3   27.73   15.63
   2  -9   0   21.90   15.63
   2  -9   1   17.70    9.12
   2  -9   2   13.95    9.46
   2  -9   3   26.49    9.39
   2  -8  -5   30.91   16.40
   2  -8  -4    3.23   13.91
   2  -8  -3    1.11   13.87
   2  -8  -2    3.77   13.97
   2  -8  -1    7.12    7.91
   2  -8   0    2.40    7.92
   2  -8   1   12.71    7.90
   2  -8   2    0.35    7.74
   2  -8   3    1.76    7.69
   2  -8   4    0.93   12.95
   2  -8   5    4.54   10.20
   2  -7  -8   16.27   16.38
   2  -7  -7   37.54   15.13
   2  -7  -6   31.27   15.75
   2  -7  -5   39.48   14.46
   2  -7  -4   18.72   14.53
   2  -7  -3   17.77   12.96
   2  -7  -2   29.20   12.85
   2  -7  -1   49.01    7.88
   2  -7   0   30.21    8.05
   2  -7   1   41.40    7.88
   2  -7   2   19.92    7.75
   2  -7   3   22.90    7.63
   2  -7   4   43.43    7.81
   2  -7   5   34.63   10.28
   2  -7   6   28.93   12.65
   2  -7   7   23.16   13.27
   2  -6 -11   47.80   15.67
   2  -6 -10   22.80   14.38
   2  -6  -9   37.13   14.65
   2  -6  -8   37.58   14.32
   2  -6  -7   64.77   14.99
   2  -6  -6   63.10   13.55
   2  -6  -5   90.21   15.67
   2  -6  -4  110.39   14.03
   2  -6  -3   85.05   13.60
   2  -6  -2   63.63    5.20
   2  -6  -1   76.03    5.89
   2  -6   0   41.94    4.84
   2  -6   1   58.97    5.70
   2  -6   2   64.30    4.86
   2  -6   3   69.30    5.93
   2  -6   4  136.69    5.37
   2  -6   5  108.70    5.80
   2  -6   6   50.14    6.04
   2  -6   7   28.40    6.42
   2  -6   8    4.11    7.74
   2  -6   9   54.76   10.17
   2  -5 -11   36.12   13.51
   2  -5 -10   11.53   11.98
   2  -5  -9    9.07    7.66
   2  -5  -8   14.25    9.47
   2  -5  -7   31.61    7.24
   2  -5  -6   54.80    7.37
   2  -5  -5  149.67    8.15
   2  -5  -4    4.42    4.96
   2  -5  -3   11.18    4.33
   2  -5  -2   28.61    3.04
   2  -5  -1   32.30    2.79
   2  -5   0    2.43    2.71
   2  -5   1   29.20    3.00
   2  -5   2    3.27    3.06
   2  -5   3   25.69    4.29
   2  -5   4   26.16    5.67
   2  -5   5   10.97    5.06
   2  -5   6    2.70    9.35
   2  -5   7   16.76    9.72
   2  -5   8   20.67   10.38
   2  -5   9   78.93   14.61
   2  -5  10   30.48   12.99
   2  -5  11    8.80   14.24
   2  -4 -13   37.76   14.94
   2  -4 -12   58.01   14.67
   2  -4 -11   79.07    9.80
   2  -4 -10   28.25    7.38
   2  -4  -9   66.37    8.46
   2  -4  -8   34.21    7.24
   2  -4  -7   93.32    8.21
   2  -4  -6  101.83    7.20
   2  -4  -5   98.60    8.85
   2  -4  -4  149.87    6.91
   2  -4  -3  135.38    8.75
   2  -4  -2  124.30    6.80
   2  -4  -1  132.11    3.39
   2  -4   0   70.96    4.77
   2  -4   1   72.54    3.56
   2  -4   2   91.44    3.79
   2  -4   3   60.46    5.32
   2  -4   4  240.88    8.17
   2  -4   5  193.81    8.30
   2  -4   6   55.52    5.50
   2  -4   7   36.27   10.83
   2  -4   8    8.94   11.05
   2  -4   9  105.58   15.91
   2  -4  10   34.82   13.93
   2  -4  11   40.95   14.86
   2  -4  12   33.05   16.39
   2  -3 -13   56.35   15.19
   2  -3 -12   68.71   14.38
   2  -3 -11   83.62   13.65
   2  -3 -10   57.79   14.83
   2  -3  -9   82.86    7.90
   2  -3  -8   78.32   12.38
   2  -3  -7  174.22    8.65
   2  -3  -6  208.64   12.90
   2  -3  -5  217.30    7.32
   2  -3  -4  170.83   15.04
   2  -3  -3  166.60    5.55
   2  -3  -2  186.24   17.85
   2  -3  -1  144.75    6.47
   2  -3   0   80.11    8.89
   2  -3   1   99.25    3.12
   2  -3   2  110.74    7.58
   2  -3   3   93.05    4.17
   2  -3   4  307.16    7.32
   2  -3   5  204.87    5.18
   2  -3   6   63.75    4.42
   2  -3   7   81.67   12.63
   2  -3   8   16.56   10.76
   2  -3   9  234.37   19.30
   2  -3  10   82.40   15.95
   2  -3  11   43.06   15.75
   2  -3  12   23.60   16.21
   2  -2 -13   46.12   15.08
   2  -2 -12   65.71   11.87
   2  -2 -11   74.35   10.28
   2  -2 -10   27.28    6.90
   2  -2  -9   42.90    7.05
   2  -2  -8   43.55    6.24
   2  -2  -7   95.94    7.45
   2  -2  -6  128.05    6.23
   2  -2  -5  119.10    9.12
   2  -2  -4   81.99    4.58
   2  -2  -3   73.98    4.88
   2  -2  -2  124.24    6.69
   2  -2  -1   66.92    8.74
   2  -2   0   49.30    5.08
   2  -2   1   18.69    4.52
   2  -2   2   46.33    3.34
   2  -2   3   23.36    2.65
   2  -2   4  193.63    3.37
   2  -2   5   95.07    3.52
   2  -2   6   15.53    8.58
   2  -2   7   15.84    9.56
   2  -2   8   57.26   12.32
   2  -2   9  145.75   14.40
   2  -2  10   59.30   14.38
   2  -2  11   13.55   14.05
   2  -2  12   21.44   15.53
   2  -1 -13   64.88   13.65
   2  -1 -12   49.75    9.91
   2  -1 -11  120.30   10.66
   2  -1 -10  103.45   10.58
   2  -1  -9   53.95   14.86
   2  -1  -8  107.12    9.11
   2  -1  -7  121.52   10.62
   2  -1  -6  143.56    7.97
   2  -1  -5   85.11    4.73
   2  -1  -4  221.82    8.81
   2  -1  -3  191.51    6.29
   2  -1  -2  373.03    8.40
   2  -1  -1  312.45   52.10
   2  -1   0  320.87   12.10
   2  -1   1  137.48   11.76
   2  -1   2  164.56    9.62
   2  -1   3   29.10    2.38
   2  -1   4  572.00   39.19
   2  -1   5  285.23   37.45
   2  -1   6   68.58    5.16
   2  -1   7   14.78    6.78
   2  -1   8   12.24   10.78
   2  -1   9  219.25   19.55
   2  -1  10   79.59   15.48
   2  -1  11   22.70    8.76
   2  -1  12   31.65   13.32
   2   1 -13   32.83   16.75
   2   1 -12   39.89   20.38
   2   1 -11  143.00   13.45
   2   1 -10   84.60    9.94
   2   1  -9   89.82   18.55
   2   1  -8   83.62    5.44
   2   1  -7  126.18    7.34
   2   1  -6  135.94   16.98
   2   1  -5  158.61    7.27
   2   1  -4  188.85    8.60
   2   1  -3  190.13    5.13
   2   1  -2  608.48   37.30
   2   1  -1  372.06   20.60
   2   1   0  500.19    3.99
   2   1   1   93.86    7.17
   2   1   2  116.22    3.60
   2   1   3   54.72    4.12
   2   1   4  641.27   59.12
   2   1   5  252.22   59.56
   2   1   6   43.80    1.57
   2   1   7   18.91    3.19
   2   1   8   16.85   12.81
   2   1   9   37.80    6.33
   2   1  10   18.95    5.62
   2   1  11   33.92   14.42
   2   1  12   29.03   13.30
   2   2 -13   42.00   16.77
   2   2 -12   46.98   10.62
   2   2 -11   29.67   12.07
   2   2 -10   72.65    9.95
   2   2  -9   28.76    5.90
   2   2  -8   36.94    7.69
   2   2  -7   78.54    6.27
   2   2  -6  107.21    5.08
   2   2  -5   87.94    9.91
   2   2  -4   76.67    9.28
   2   2  -3   49.41    4.44
   2   2  -2  309.33    8.03
   2   2  -1   69.90    3.58
   2   2   0  167.17   30.09
   2   2   1    7.03    3.28
   2   2   2   26.70    3.86
   2   2   3    4.56    4.72
   2   2   4  338.29    8.52
   2   2   5   83.23   11.62
   2   2   6   15.39    6.83
   2   2   7   23.66    7.43
   2   2   8   33.45    5.85
   2   2   9   58.39   13.49
   2   2  10   44.26   14.00
   2   2  11   25.30   14.35
   2   2  12   13.42   16.27
   2   3 -13   62.54   16.02
   2   3 -12   62.13   11.26
   2   3 -11   75.23   10.57
   2   3 -10  105.62   15.71
   2   3  -9   62.01    6.75
   2   3  -8   83.85    6.97
   2   3  -7  199.26    8.97
   2   3  -6  164.99   28.23
   2   3  -5  239.39    7.65
   2   3  -4  192.30   12.57
   2   3  -3  163.42   24.09
   2   3  -2  508.99   10.49
   2   3  -1  155.28    4.60
   2   3   0  256.56    3.79
   2   3   1   21.43    3.46
   2   3   2   91.41    5.84
   2   3   3   69.06    5.66
   2   3   4  450.78    9.16
   2   3   5  206.39    5.97
   2   3   6   84.83    5.89
   2   3   7   52.77    6.95
   2   3   8   43.21    6.86
   2   3   9   69.36   15.23
   2   3  10   51.22   13.90
   2   3  11   15.29   14.18
   2   4 -12   48.89   16.05
   2   4 -11   97.55   16.33
   2   4 -10   93.79   14.84
   2   4  -9   58.78   11.74
   2   4  -8   52.27    7.35
   2   4  -7  154.26    8.68
   2   4  -6   66.99    9.62
   2   4  -5  105.23   11.46
   2   4  -4   99.46    5.20
   2   4  -3  100.71    6.84
   2   4  -2  358.10   16.82
   2   4  -1  177.35   12.00
   2   4   0  198.17   19.38
   2   4   1   54.88    2.92
   2   4   2   88.70    4.49
   2   4   3   78.71    5.04
   2   4   4  262.00   11.74
   2   4   5  122.35    6.18
   2   4   6   64.46    5.46
   2   4   7   16.45    7.97
   2   4   8   18.76    6.97
   2   4   9   55.20    9.60
   2   4  10   52.16   15.03
   2   4  11   20.61   14.87
   2   5  -8    1.27    8.60
   2   5  -7   64.37   11.67
   2   5  -6   49.45   10.72
   2   5  -5   37.48    9.95
   2   5  -4   29.94    9.74
   2   5  -3   13.83    8.92
   2   5  -2  104.12   12.29
   2   5  -1   20.29   10.05
   2   5   0   28.50   10.06
   2   5   1   13.33    8.96
   2   5   2    2.12    3.62
   2   5   3   12.14    4.08
   2   5   4   94.82    5.68
   2   5   5   29.31    5.11
   2   5   6   15.43    6.34
   2   5   7    6.82    7.26
   2   5   8   13.48    7.93
   2   5   9   13.03    9.13
   2   5  10   21.78   13.02
   2   5  11    7.79   14.30
   2   6  -7  164.82   14.75
   2   6  -6   44.49   11.60
   2   6  -5   70.73   12.17
   2   6  -4   60.15   12.89
   2   6  -3   87.41   12.35
   2   6  -2  199.51   17.06
   2   6  -1  101.41   13.47
   2   6   0   92.11   14.19
   2   6   1   73.77   13.17
   2   6   2   68.14   13.13
   2   6   3   57.12   12.39
   2   6   4  128.50    9.84
   2   6   5   81.87   13.92
   2   6   6   55.24   13.94
   2   6   7   20.68   12.41
   2   6   8   21.42   12.27
   2   6   9   21.35   13.46
   2   7  -7   77.49   14.68
   2   7  -6    8.51   12.28
   2   7  -5   33.84   13.40
   2   7  -4   25.47   12.29
   2   7  -3   46.66   14.07
   2   7  -2   95.88   14.97
   2   7  -1   43.02   13.59
   2   7   0   33.78   12.47
   2   7   1   25.92   12.30
   2   7   2   24.38   12.40
   2   7   3   24.25   13.97
   2   7   4   52.54   14.26
   2   7   5   42.96   14.26
   2   7   6   12.46   13.30
   2   7   7   21.60   13.55
   2   7   8   20.70   14.53
   2   8  -6    6.65   12.73
   2   8  -5   15.35   13.71
   2   8  -4    3.76   12.86
   2   8  -3   11.61   13.36
   2   8  -2   33.47   13.83
   2   8  -1    7.11   14.10
   2   8   0    6.60   13.34
   2   8   1   10.36   14.93
   2   8   2    2.31   14.49
   2   8   3    1.63   14.78
   2   8   4   21.18   14.60
   3  -8  -4    8.12   14.93
   3  -8  -3    1.10   13.83
   3  -8  -2   18.21   15.25
   3  -8  -1    0.82   13.86
   3  -8   0    1.56   13.15
   3  -8   1    9.00    8.45
   3  -8   2    7.77    8.25
   3  -8   3    0.21   11.07
   3  -8   4   10.88   12.56
   3  -8   5    1.50   12.43
   3  -7  -7   54.76   17.05
   3  -7  -6   32.32   16.05
   3  -7  -5    1.76   15.13
   3  -7  -4   43.62   14.97
   3  -7  -3   57.69   14.72
   3  -7  -2   85.84   15.62
   3  -7  -1   42.98   11.30
   3  -7   0   22.46    7.51
   3  -7   1   22.19   11.74
   3  -7   2   41.14    8.23
   3  -7   3   14.17    7.92
   3  -7   4   53.96    8.80
   3  -7   5   18.08   12.14
   3  -7   6   12.56    9.77
   3  -7   7   14.23   12.21
   3  -6 -10   93.14   17.66
   3  -6  -9   52.26   15.50
   3  -6  -8   84.08   16.00
   3  -6  -7   83.14   15.92
   3  -6  -6   40.32   13.88
   3  -6  -5   30.23   13.12
   3  -6  -4  107.97   15.13
   3  -6  -3   70.59   13.78
   3  -6  -2  171.23   12.84
   3  -6  -1  111.39    8.60
   3  -6   0  108.53    8.92
   3  -6   1   71.81    9.94
   3  -6   2   74.15    8.43
   3  -6   3   39.31    7.74
   3  -6   4  118.15    7.54
   3  -6   5   72.23    8.24
   3  -6   6   30.37    7.80
   3  -6   7   27.78   12.46
   3  -6   8   16.61   13.40
   3  -6   9   49.93   15.00
   3  -5 -11   10.30   12.88
   3  -5 -10   28.72   13.59
   3  -5  -9    0.51   12.36
   3  -5  -8   35.90   13.17
   3  -5  -7   58.86   14.47
   3  -5  -6   23.13   12.28
   3  -5  -5   17.37   11.33
   3  -5  -4   33.25   12.10
   3  -5  -3   33.19   11.66
   3  -5  -2   95.10    6.84
   3  -5  -1   29.21    5.94
   3  -5   0   47.15    6.41
   3  -5   1   24.22    5.73
   3  -5   2   14.97    6.23
   3  -5   3    4.24    8.43
   3  -5   4  107.91   10.25
   3  -5   5   34.24    6.59
   3  -5   6    8.56   10.41
   3  -5   7   36.76   12.24
   3  -5   8   74.80   14.45
   3  -5   9    7.20   13.66
   3  -5  10    2.60   14.21
   3  -4 -11   30.20   13.42
   3  -4 -10   92.69   14.59
   3  -4  -9   76.38   13.19
   3  -4  -8   93.41    9.28
   3  -4  -7  139.89    8.40
   3  -4  -6   47.15    7.44
   3  -4  -5   35.46    4.81
   3  -4  -4   76.18    4.28
   3  -4  -3  136.54   13.31
   3  -4  -2  426.07   18.67
   3  -4  -1  192.44    7.20
   3  -4   0  211.48    8.95
   3  -4   1   43.93    9.40
   3  -4   2   84.46   11.68
   3  -4   3   78.17    9.20
   3  -4   4  172.25   11.00
   3  -4   5   74.31   12.02
   3  -4   6   50.97   11.93
   3  -4   7   35.40   12.07
   3  -4   8   35.66   13.27
   3  -4   9   80.28   15.17
   3  -4  10   15.20   14.62
   3  -4  11   16.76   14.90
   3  -3 -12   49.53   12.90
   3  -3 -11   57.21    8.92
   3  -3 -10  108.56    9.19
   3  -3  -9   65.74   10.82
   3  -3  -8   88.85    7.90
   3  -3  -7  263.87    9.81
   3  -3  -6  104.91    6.92
   3  -3  -5  120.33    7.73
   3  -3  -4  129.11    8.26
   3  -3  -3  187.15   13.58
   3  -3  -2  545.89    8.48
   3  -3  -1  236.74    7.89
   3  -3   0  242.23   13.76
   3  -3   1  124.82    9.54
   3  -3   2  169.73    5.97
   3  -3   3  184.54   11.03
   3  -3   4  340.01   12.34
   3  -3   5  146.10   12.40
   3  -3   6   81.65   16.80
   3  -3   7   50.53   12.27
   3  -3   8  127.06   16.54
   3  -3   9   86.38   15.58
   3  -3  10   37.29   14.83
   3  -3  11   32.41   15.95
   3  -2 -13   16.47   13.20
   3  -2 -12   40.23   27.82
   3  -2 -11   32.64    8.05
   3  -2 -10   43.97    7.85
   3  -2  -9   29.17    6.68
   3  -2  -8   36.02    6.83
   3  -2  -7  217.33    9.67
   3  -2  -6   32.27    5.67
   3  -2  -5   49.86    5.11
   3  -2  -4   40.97    4.95
   3  -2  -3   78.59   10.08
   3  -2  -2  493.05   42.23
   3  -2  -1  130.44   11.21
   3  -2   0  110.74   10.00
   3  -2   1   88.02    3.91
   3  -2   2   75.96    4.34
   3  -2   3   81.01    4.89
   3  -2   4  220.69   10.93
   3  -2   5   64.18    5.17
   3  -2   6   36.82    3.02
   3  -2   7   49.32   12.66
   3  -2   8   69.19   13.16
   3  -2   9   28.44   14.07
   3  -2  10   12.08   13.65
   3  -2  11   13.38   14.60
   3  -1 -13    6.09    8.35
   3  -1 -12   48.64   16.59
   3  -1 -11   53.37   10.29
   3  -1 -10   79.15   19.43
   3  -1  -9  123.88    8.99
   3  -1  -8  110.23   10.64
   3  -1  -7  347.60   11.36
   3  -1  -6   15.65   10.84
   3  -1  -5   43.96   11.89
   3  -1  -4   31.21    6.09
   3  -1  -3  171.83   12.13
   3  -1  -2  935.72   25.18
   3  -1  -1  385.20   15.06
   3  -1   0  290.41    8.64
   3  -1   1  115.17    4.43
   3  -1   2  179.59   30.09
   3  -1   3  133.73    5.03
   3  -1   4  230.65    5.00
   3  -1   5   78.11    7.19
   3  -1   6   73.49    8.68
   3  -1   7   97.49   13.64
   3  -1   8  118.34   15.25
   3  -1   9   63.15    9.77
   3  -1  10   26.66   11.72
   3   1 -13    1.62   17.69
   3   1 -12   39.03   10.17
   3   1 -11   34.06    9.31
   3   1 -10   81.52   13.55
   3   1  -9   85.54   11.48
   3   1  -8   79.26   12.08
   3   1  -7  393.25   10.06
   3   1  -6    9.93    6.70
   3   1  -5   33.61    7.73
   3   1  -4   49.24    8.33
   3   1  -3  210.33   22.46
   3   1  -2  811.80   13.39
   3   1  -1  320.96    8.51
   3   1   0  209.25   17.38
   3   1   1  142.39    4.46
   3   1   2  123.59    6.89
   3   1   3  115.82    6.06
   3   1   4  117.88    7.87
   3   1   5   96.87   27.23
   3   1   6   79.01    9.27
   3   1   7   90.12   25.19
   3   1   8   51.89    9.47
   3   1   9   62.84   10.57
   3   1  10   29.39   14.80
   3   1  11   23.34   12.01
   3   2 -13    1.29   15.20
   3   2 -12   33.57   10.80
   3   2 -11   15.16    9.45
   3   2 -10   15.55    6.16
   3   2  -9   35.55    6.74
   3   2  -8   37.11   11.62
   3   2  -7  275.98   51.75
   3   2  -6   13.69    6.19
   3   2  -5   20.43    5.05
   3   2  -4   41.19    6.59
   3   2  -3  100.21    4.98
   3   2  -2  347.61   10.55
   3   2  -1  131.66   17.32
   3   2   0  117.92    6.61
   3   2   1   98.86   11.78
   3   2   2   93.61    5.95
   3   2   3  121.11    7.17
   3   2   4  151.81   29.06
   3   2   5  109.29    7.54
   3   2   6   61.43    7.30
   3   2   7   82.82   12.20
   3   2   8   35.29   12.46
   3   2   9   58.66   14.58
   3   2  10   11.28   14.48
   3   2  11   33.56   15.42
   3   3 -13   26.28   15.63
   3   3 -12   67.45   16.01
   3   3 -11   22.57   13.43
   3   3 -10   24.96   12.19
   3   3  -9   42.50    7.47
   3   3  -8   68.64    8.21
   3   3  -7  361.08   11.12
   3   3  -6   59.08    6.47
   3   3  -5  101.96    6.20
   3   3  -4  139.58    6.10
   3   3  -3  224.58    9.25
   3   3  -2  407.67   10.00
   3   3  -1  269.39    7.02
   3   3   0  245.41    8.24
   3   3   1  184.30    5.08
   3   3   2  180.20    9.29
   3   3   3  174.53   23.56
   3   3   4  226.76    9.73
   3   3   5  173.09   10.36
   3   3   6  112.10   16.01
   3   3   7  127.57   13.16
   3   3   8   77.95    8.49
   3   3   9  115.10   16.59
   3   3  10   32.62   15.05
   3   3  11   50.79   16.63
   3   4  -9   51.60   11.42
   3   4  -8   57.88    7.38
   3   4  -7  233.68   10.33
   3   4  -6   29.24    9.96
   3   4  -5   35.02   10.45
   3   4  -4   41.57   10.64
   3   4  -3   85.31   11.91
   3   4  -2  226.36   15.04
   3   4  -1  170.23    4.10
   3   4   0  130.54    4.09
   3   4   1   98.34    4.94
   3   4   2   80.64    5.90
   3   4   3   63.59    6.76
   3   4   4   65.20    6.72
   3   4   5   66.68    8.01
   3   4   6   44.39    7.41
   3   4   7   83.19    9.18
   3   4   8   63.50    8.70
   3   4   9   84.63   15.08
   3   4  10   14.46   14.10
   3   4  11   41.74   17.33
   3   5  -8   12.47   10.74
   3   5  -7   79.57   12.91
   3   5  -6   35.77   11.86
   3   5  -5   25.95   11.11
   3   5  -4   35.72   11.70
   3   5  -3   26.28   10.87
   3   5  -2   36.49   11.33
   3   5  -1   62.11   12.59
   3   5   0   78.69   12.55
   3   5   1   28.05   10.80
   3   5   2   59.55   12.95
   3   5   3   61.43   11.64
   3   5   4   73.18    8.09
   3   5   5   53.37   11.21
   3   5   6   13.94    7.59
   3   5   7   64.33    8.33
   3   5   8   24.79    8.25
   3   5   9   25.27   14.03
   3   5  10    3.16   14.74
   3   6  -8   40.16   12.32
   3   6  -7   94.38   15.04
   3   6  -6   45.87   12.66
   3   6  -5   26.08   12.77
   3   6  -4   13.28   11.08
   3   6  -3   41.09   12.14
   3   6  -2  104.32   14.48
   3   6  -1  101.59   15.15
   3   6   0   74.33   14.06
   3   6   1   45.98   13.58
   3   6   2   65.69   13.37
   3   6   3   60.77   13.46
   3   6   4   49.50   13.25
   3   6   5   46.13   14.46
   3   6   6   13.69   12.67
   3   6   7   77.10   15.68
   3   6   8   48.89   14.11
   3   7  -7   48.18   14.05
   3   7  -6   25.47   13.90
   3   7  -5   18.26   12.80
   3   7  -4   14.78   12.45
   3   7  -3   18.19   13.53
   3   7  -2   44.03   15.23
   3   7  -1   47.95   14.04
   3   7   0   36.11   14.05
   3   7   1   11.59   13.42
   3   7   2   84.14   16.51
   3   7   3   38.62   14.78
   3   7   4   56.13   15.36
   3   7   5   30.49   14.22
   3   7   6    7.40   14.25
   3   7   7   40.26   15.17
   3   8  -2   20.04   15.86
   4  -8  -1   13.82   14.90
   4  -8   0   13.52   13.66
   4  -8   1   18.08   13.89
   4  -8   2   17.86   13.53
   4  -8   4   16.36   13.47
   4  -7  -5   24.44   15.73
   4  -7  -4   19.88   14.63
   4  -7  -3   27.05   14.42
   4  -7  -2   46.98   14.37
   4  -7  -1   43.89   14.68
   4  -7   0   18.55   13.31
   4  -7   1   34.83   12.37
   4  -7   2   35.89    8.38
   4  -7   3   42.10    8.83
   4  -7   4   18.51   13.04
   4  -7   5   16.93   12.27
   4  -7   6   12.81   12.99
   4  -6  -8   37.79   15.76
   4  -6  -7   66.62   16.33
   4  -6  -6   17.24   13.36
   4  -6  -5   19.09   12.74
   4  -6  -4   35.17   13.73
   4  -6  -3   30.20   12.59
   4  -6  -2  108.04   14.91
   4  -6  -1   87.21   14.89
   4  -6   0   64.22   12.86
   4  -6   1   52.08   10.78
   4  -6   2   49.18    7.85
   4  -6   3   57.42   11.71
   4  -6   4   26.20    6.82
   4  -6   5   17.63   11.90
   4  -6   6   14.53   12.51
   4  -6   7   45.35   15.01
   4  -6   8   63.45   16.55
   4  -5 -10    0.01   14.33
   4  -5  -9    2.76   13.48
   4  -5  -8    4.65   13.94
   4  -5  -7   85.70   15.18
   4  -5  -6   36.00   13.85
   4  -5  -5   37.48   13.05
   4  -5  -4   17.90   11.85
   4  -5  -3   35.01   11.42
   4  -5  -2   29.47   11.87
   4  -5  -1   44.28    6.14
   4  -5   0   31.79    6.38
   4  -5   1   40.22    6.80
   4  -5   2   69.25   12.17
   4  -5   3   92.60   11.23
   4  -5   4   39.74   10.22
   4  -5   5   38.04   12.61
   4  -5   6   13.69   12.54
   4  -5   7   49.46   14.42
   4  -5   8   30.27   14.47
   4  -5   9    7.56   14.59
   4  -4 -11    1.87   13.57
   4  -4 -10    0.02   13.81
   4  -4  -9   35.15   14.54
   4  -4  -8   31.82   11.89
   4  -4  -7  119.72   16.02
   4  -4  -6   35.63   12.00
   4  -4  -5    9.22   10.50
   4  -4  -4    3.48   11.39
   4  -4  -3   34.83   11.69
   4  -4  -2  110.28    5.54
   4  -4  -1   92.16    6.48
   4  -4   0   57.98   10.12
   4  -4   1   45.70   10.55
   4  -4   2   46.41    9.95
   4  -4   3   55.46   10.80
   4  -4   4    1.14    7.69
   4  -4   5   16.65    6.24
   4  -4   6   19.23   11.56
   4  -4   7   73.80   15.99
   4  -4   8   52.84   14.61
   4  -4   9   50.44   16.47
   4  -3 -11    8.70   13.08
   4  -3 -10   16.72   12.36
   4  -3  -9   39.87   12.07
   4  -3  -8   60.37   14.03
   4  -3  -7  204.66   15.79
   4  -3  -6  137.35   15.28
   4  -3  -5   89.29   12.12
   4  -3  -4  102.48   14.44
   4  -3  -3  105.53   12.80
   4  -3  -2  138.47    5.09
   4  -3  -1  147.10   12.92
   4  -3   0  136.27   13.30
   4  -3   1  124.26   11.04
   4  -3   2  187.67   13.97
   4  -3   3  201.27   11.87
   4  -3   4  114.47   11.42
   4  -3   5   80.20    6.88
   4  -3   6   36.92   12.38
   4  -3   7   98.94   16.13
   4  -3   8   53.54   14.55
   4  -3   9   88.43   16.93
   4  -3  10   23.28   15.52
   4  -2 -12   39.99   13.48
   4  -2 -11    7.58    7.80
   4  -2 -10    5.97    7.05
   4  -2  -9   20.58    7.39
   4  -2  -8   24.33    6.70
   4  -2  -7  163.69   11.73
   4  -2  -6   95.80   12.43
   4  -2  -5   40.40   12.32
   4  -2  -4   47.88    9.76
   4  -2  -3   45.36   11.19
   4  -2  -2   47.98   10.03
   4  -2  -1   80.13   10.92
   4  -2   0   75.16    9.59
   4  -2   1   29.40    3.70
   4  -2   2  132.45   11.36
   4  -2   3  104.20    6.80
   4  -2   4   70.30    7.64
   4  -2   5   33.59    6.85
   4  -2   6   15.96    5.54
   4  -2   7  103.07   15.66
   4  -2   8   48.66   14.04
   4  -2   9   52.32   15.66
   4  -2  10   28.44   15.11
   4  -1 -13    2.66    6.57
   4  -1 -12   93.03   64.23
   4  -1 -11    9.39    6.97
   4  -1 -10   15.49    7.95
   4  -1  -9   51.09   11.65
   4  -1  -8   50.54    7.76
   4  -1  -7  151.34   12.83
   4  -1  -6   49.52    9.71
   4  -1  -5   16.88    8.77
   4  -1  -4    8.04    9.07
   4  -1  -3   37.65    2.64
   4  -1  -2   77.92   10.75
   4  -1  -1  107.87   10.29
   4  -1   0   99.03    5.88
   4  -1   1   23.49    4.18
   4  -1   2  119.75   10.29
   4  -1   3   56.65    7.24
   4  -1   4   25.91    7.77
   4  -1   5   14.13    5.56
   4  -1   6    1.94   10.00
   4  -1   7  145.24   14.71
   4  -1   8   67.13   13.67
   4  -1   9   56.61   11.81
   4  -1  10   17.12   10.87
   4   1 -12   22.90   19.71
   4   1 -11    1.81   15.26
   4   1 -10   18.50   10.98
   4   1  -9   60.85    8.43
   4   1  -8   75.80   27.79
   4   1  -7  134.46   18.41
   4   1  -6   64.10   10.87
   4   1  -5   14.65   10.41
   4   1  -4    3.85    8.45
   4   1  -3   16.71    6.67
   4   1  -2   49.32    9.76
   4   1  -1  111.51   10.70
   4   1   0  112.87    5.27
   4   1   1    3.81    3.39
   4   1   2  174.31   19.70
   4   1   3   71.65    6.05
   4   1   4   37.42    6.58
   4   1   5   12.14    5.33
   4   1   6    2.84    3.91
   4   1   7   84.28   11.34
   4   1   8   75.91   14.91
   4   1   9   68.20   15.10
   4   1  10   37.37   13.63
   4   2 -10    1.27   11.98
   4   2  -9   27.10    8.17
   4   2  -8   42.57    7.54
   4   2  -7   82.06   15.97
   4   2  -6  119.99    7.98
   4   2  -5   56.13    7.26
   4   2  -4   82.65   22.67
   4   2  -3   25.73    4.10
   4   2  -2   32.76    9.47
   4   2  -1   42.19   10.58
   4   2   0   47.26    2.54
   4   2   1    4.63    3.07
   4   2   2  166.21   13.17
   4   2   3   83.76    8.88
   4   2   4   79.23    7.36
   4   2   5   16.97    6.54
   4   2   6    7.95    6.37
   4   2   7   77.66   13.62
   4   2   8   28.22   13.09
   4   2   9   35.23   14.94
   4   2  10   18.53   16.20
   4   3 -10   25.22   11.28
   4   3  -9   30.48   11.37
   4   3  -8   55.16   12.56
   4   3  -7   82.93   12.82
   4   3  -6  185.27   16.23
   4   3  -5   92.76   12.09
   4   3  -4   47.88   12.34
   4   3  -3   94.39   12.06
   4   3  -2  111.18   12.95
   4   3  -1  104.46   12.32
   4   3   0  108.10   13.24
   4   3   1    9.60    8.29
   4   3   2  319.66   11.32
   4   3   3  166.14    9.16
   4   3   4  149.00    9.51
   4   3   5   56.23    9.15
   4   3   6   34.00    7.40
   4   3   7  124.13   10.07
   4   3   8   76.93   15.75
   4   3   9   54.06   15.27
   4   3  10   47.15   16.61
   4   4  -9   21.13   11.52
   4   4  -8   47.66   12.32
   4   4  -7   47.01   12.43
   4   4  -6   48.79   12.09
   4   4  -5    6.94   10.58
   4   4  -4    5.90   10.14
   4   4  -3   16.88   10.57
   4   4  -2   49.41   12.35
   4   4  -1   48.80   12.38
   4   4   0   49.28    5.72
   4   4   1    0.13    5.09
   4   4   2  114.40    7.93
   4   4   3   19.35   11.17
   4   4   4   11.14    6.60
   4   4   5    8.47    7.04
   4   4   6    6.25    7.19
   4   4   7   67.40   15.98
   4   4   8   54.24   14.26
   4   4   9   37.41   15.03
   4   4  10   25.85   16.44
   4   5  -9    0.29   12.53
   4   5  -8   14.55   11.81
   4   5  -7   34.97   12.80
   4   5  -6   85.00   14.94
   4   5  -5   56.47   12.87
   4   5  -4   16.28   11.58
   4   5  -3   36.26   11.97
   4   5  -2   13.35   12.41
   4   5  -1    7.27   11.61
   4   5   0    7.69   11.85
   4   5   1    7.12   10.83
   4   5   2  152.80   15.94
   4   5   3   85.43   13.41
   4   5   4   58.89   13.49
   4   5   5   17.02   12.67
   4   5   6    8.06   12.13
   4   5   7   24.96   12.31
   4   6  -8   33.96   13.83
   4   6  -7   28.53   13.94
   4   6  -6   16.83   12.76
   4   6  -5   11.13   12.53
   4   6  -4    1.37   12.61
   4   6  -3   26.35   14.27
   4   6  -2   23.34   12.91
   4   6  -1   47.41   13.80
   4   6   0   26.33   12.76
   4   6   1    0.17   13.15
   4   6   2   77.63   14.79
   4   6   3   32.35   14.13
   4   6   4   15.68   13.13
   4   6   5   14.57   13.08
   4   6   6   14.01   14.20
   4   6   7   45.68   14.65
   4   7  -5   18.86   14.07
   4   7  -4    4.58   14.93
   4   7  -3   39.09   16.03
   4   7  -2   19.16   14.79
   4   7  -1   25.59   14.80
   4   7   0    5.18   14.49
   4   7   1    0.41   14.33
   4   7   2   67.45   17.24
   4   7   3   29.47   15.71
   5  -7  -2   13.72   13.84
   5  -7  -1   19.86   14.44
   5  -7   0   10.49   13.60
   5  -7   1    1.85   12.97
   5  -7   2   45.04   14.53
   5  -7   4    0.38   14.14
   5  -7   5    9.43   14.22
   5  -6  -6   61.84   16.38
   5  -6  -5   15.57   15.01
   5  -6  -4   11.62   13.15
   5  -6  -3   33.62   14.39
   5  -6  -2   19.57   13.23
   5  -6  -1   34.45   13.67
   5  -6   0   23.26   12.96
   5  -6   1    4.06   12.49
   5  -6   2   77.64   14.61
   5  -6   3    4.80   11.86
   5  -6   4    5.92   11.30
   5  -6   5   12.86   13.31
   5  -6   6    5.59   14.62
   5  -5  -8   20.99   15.92
   5  -5  -7   22.72   13.90
   5  -5  -6   89.04   16.48
   5  -5  -5   48.75   15.24
   5  -5  -4   24.96   13.52
   5  -5  -3   24.37   12.58
   5  -5  -2   10.04   12.60
   5  -5  -1    5.85   12.41
   5  -5   0    2.83   11.92
   5  -5   1    0.92   10.80
   5  -5   2   99.93   14.64
   5  -5   3   54.10   11.91
   5  -5   4   24.59   10.88
   5  -5   5    9.49   13.50
   5  -5   6    2.45   13.42
   5  -5   7   10.82   14.93
   5  -4 -10   32.55   16.14
   5  -4  -9   27.72   14.66
   5  -4  -8   29.54   14.32
   5  -4  -7   20.98   13.36
   5  -4  -6   58.16   14.37
   5  -4  -5    4.86   12.88
   5  -4  -4   10.60   12.51
   5  -4  -3   15.40   12.37
   5  -4  -2   34.17   13.08
   5  -4  -1   33.42   12.28
   5  -4   0   36.92   11.67
   5  -4   1    0.30   10.79
   5  -4   2   84.99   12.79
   5  -4   3    0.82    9.55
   5  -4   4    3.28    8.85
   5  -4   5    7.88   12.12
   5  -4   6   12.95   14.15
   5  -4   7   33.99   15.25
   5  -3 -11   76.46   17.09
   5  -3 -10   57.33   14.98
   5  -3  -9   44.80   13.98
   5  -3  -8   50.74   15.16
   5  -3  -7   43.65   14.21
   5  -3  -6  196.51   18.00
   5  -3  -5  100.58   14.58
   5  -3  -4   60.06   13.12
   5  -3  -3   98.16   14.77
   5  -3  -2   96.06   13.32
   5  -3  -1   63.10   12.62
   5  -3   0   51.22   11.70
   5  -3   1    2.01    9.74
   5  -3   2  293.06   16.54
   5  -3   3  119.62   12.98
   5  -3   4   64.16   10.26
   5  -3   5   22.06    7.53
   5  -3   6   21.61   13.54
   5  -3   7   44.91   16.21
   5  -3   8   34.43   16.25
   5  -2 -11   51.83   13.65
   5  -2 -10   18.87   12.81
   5  -2  -9   25.09   13.58
   5  -2  -8   28.92   12.39
   5  -2  -7   24.13   12.40
   5  -2  -6  120.34   15.72
   5  -2  -5   56.50   12.64
   5  -2  -4   26.63   11.32
   5  -2  -3   57.61   12.53
   5  -2  -2   54.43   12.00
   5  -2  -1    9.19    9.81
   5  -2   0   16.61    9.73
   5  -2   1    7.04    8.79
   5  -2   2  198.17   15.29
   5  -2   3   72.95   11.21
   5  -2   4   28.00   10.03
   5  -2   5   13.64    7.46
   5  -2   6    8.74   13.24
   5  -2   7   27.64   14.28
   5  -2   8   22.18   14.44
   5  -1 -11   65.88   16.26
   5  -1 -10   49.35   12.82
   5  -1  -9   43.54   11.42
   5  -1  -8   23.36   12.02
   5  -1  -7   18.36   10.06
   5  -1  -6   63.48   11.98
   5  -1  -5   32.92   11.37
   5  -1  -4    3.75   11.32
   5  -1  -3   80.66   12.70
   5  -1  -2   69.63   10.52
   5  -1  -1   44.02   10.35
   5  -1   0   34.76    9.29
   5  -1   1   36.92    9.32
   5  -1   2  163.08   12.61
   5  -1   3   35.56    8.87
   5  -1   4   12.19    6.14
   5  -1   5   15.74    5.70
   5  -1   6    9.15    3.30
   5  -1   7   35.86   13.55
   5  -1   8   31.92   10.56
   5   1 -10   25.52   12.73
   5   1  -9   24.23    7.68
   5   1  -8   23.47   13.32
   5   1  -7   35.96   11.55
   5   1  -6   42.23   11.26
   5   1  -5   28.38   12.85
   5   1  -4    1.30   11.15
   5   1  -3  103.60   14.20
   5   1  -2  105.00   13.02
   5   1  -1   28.12   10.71
   5   1   0   42.10    9.59
   5   1   1   31.97    8.78
   5   1   2  194.23   14.32
   5   1   3   30.28    9.11
   5   1   4    4.58    6.58
   5   1   5   17.76    7.36
   5   1   6   34.42   11.39
   5   1   7   28.80   12.13
   5   1   8   45.31   14.92
   5   1   9   36.66   15.74
   5   2 -11   36.00   14.18
   5   2 -10   19.23   12.56
   5   2  -9   30.33   12.66
   5   2  -8    9.01   11.82
   5   2  -7   66.16   13.08
   5   2  -6   54.95   12.73
   5   2  -5   37.13   11.30
   5   2  -4   16.79   11.48
   5   2  -3  114.51   12.84
   5   2  -2   73.56   13.74
   5   2  -1    1.78   10.45
   5   2   0    8.95   10.78
   5   2   1   14.91   10.20
   5   2   2  223.61   15.83
   5   2   3   52.40    7.69
   5   2   4   22.78    7.50
   5   2   5   13.45    8.16
   5   2   6    8.22    7.67
   5   2   7   13.70   12.90
   5   2   8   10.40   13.37
   5   2   9   20.63   14.84
   5   3 -10   33.95   13.98
   5   3  -9   35.00   14.20
   5   3  -8   27.60   12.02
   5   3  -7  101.84   15.07
   5   3  -6   84.34   14.29
   5   3  -5   79.70   14.17
   5   3  -4   65.39   12.77
   5   3  -3  173.78   16.63
   5   3  -2   93.04   13.54
   5   3  -1   27.76   12.25
   5   3   0   34.84   11.38
   5   3   1   36.57   11.78
   5   3   2  260.18   11.78
   5   3   3  101.81    9.83
   5   3   4   84.62    8.88
   5   3   5   47.02    8.66
   5   3   6   38.68    8.59
   5   3   7   27.52   13.26
   5   3   8   26.23   14.85
   5   3   9   41.83   16.47
   5   4 -10   29.32   13.88
   5   4  -9   36.50   14.59
   5   4  -8    5.86   12.74
   5   4  -7   33.98   13.48
   5   4  -6   17.88   12.13
   5   4  -5   23.06   12.59
   5   4  -4    6.43   11.69
   5   4  -3   80.47   13.26
   5   4  -2   51.46   14.45
   5   4  -1   33.40   13.09
   5   4   0   34.48   12.87
   5   4   1   42.34   13.01
   5   4   2   74.46   15.12
   5   4   3    2.15   11.65
   5   4   4    5.62   11.43
   5   4   5    7.22    7.88
   5   4   6   12.51    8.26
   5   5  -8   12.69   13.84
   5   5  -7   41.22   14.79
   5   5  -6   19.36   13.65
   5   5  -5   36.18   14.01
   5   5  -4   11.33   12.86
   5   5  -3   71.40   15.09
   5   5  -2   23.17   12.63
   5   5  -1    3.91   12.02
   5   5   0    1.16   12.18
   5   5   1    4.02   12.73
   5   5   2   85.29   14.90
   5   5   3   28.06   14.44
   5   5   4   31.56   13.58
   5   5   5    4.66   13.10
   5   5   6    2.66   13.58
   5   6  -4   14.70   15.17
   5   6  -3   67.84   15.60
   5   6  -2   41.23   15.53
   5   6  -1   53.35   16.46
   5   6   0   32.91   15.74
   5   6   1   28.90   15.46
   5   6   2   41.94   15.81
   5   6   3   31.14   14.87
   5   6   4   26.18   15.79
   6  -6  -2   52.58   16.78
   6  -6  -1   43.68   15.22
   6  -6   0   29.62   14.42
   6  -6   1   17.87   13.81
   6  -6   2   45.18   14.94
   6  -5  -5   19.21   15.15
   6  -5  -4   14.56   14.46
   6  -5  -3   35.19   16.57
   6  -5  -2   26.45   13.92
   6  -5  -1    1.42   13.24
   6  -5   0    0.16   12.89
   6  -5   1   15.65   12.85
   6  -5   2   47.44   13.52
   6  -5   3   36.12   13.04
   6  -4  -7   21.19   16.35
   6  -4  -6   40.64   16.79
   6  -4  -5   26.38   15.24
   6  -4  -4   17.20   14.82
   6  -4  -3   79.64   15.49
   6  -4  -2   66.15   15.47
   6  -4  -1   52.05   13.89
   6  -4   0   45.13   13.34
   6  -4   1   46.30   13.97
   6  -4   2   87.77   14.70
   6  -4   3   24.03   10.95
   6  -4   5   20.11   14.12
   6  -3  -8   25.81   15.78
   6  -3  -7   50.55   15.69
   6  -3  -6   56.89   15.08
   6  -3  -5   47.61   15.49
   6  -3  -4   63.25   14.95
   6  -3  -3  140.07   17.01
   6  -3  -2   84.74   13.99
   6  -3  -1   59.52   14.15
   6  -3   0   40.32   12.12
   6  -3   1   67.72   13.35
   6  -3   2  101.23   14.24
   6  -3   3   65.75   12.96
   6  -3   4   54.71   12.26
   6  -3   5   44.48   15.88
   6  -3   6   44.42   16.19
   6  -2  -9   33.94   16.94
   6  -2  -8   18.19   13.93
   6  -2  -7   33.34   13.54
   6  -2  -6   23.08   14.03
   6  -2  -5   14.93   13.45
   6  -2  -4   31.04   12.85
   6  -2  -3   85.28   14.37
   6  -2  -2   36.56   12.99
   6  -2  -1   35.48   11.63
   6  -2   0   25.36   11.55
   6  -2   1   48.60   11.72
   6  -2   2   72.88   12.90
   6  -2   3   26.45   11.49
   6  -2   4   30.29   10.67
   6  -2   5   20.00   13.83
   6  -2   6   20.72   14.73
   6  -1 -10   22.07   13.72
   6  -1  -9   45.20   14.99
   6  -1  -8   19.13   12.91
   6  -1  -7   52.62   14.48
   6  -1  -6   24.84   11.12
   6  -1  -5   26.32   11.55
   6  -1  -4   56.22   12.91
   6  -1  -3  114.53   15.30
   6  -1  -2   95.86   14.68
   6  -1  -1  105.20   13.27
   6  -1   0   99.62   12.59
   6  -1   1   69.17   12.23
   6  -1   2   63.40   12.30
   6  -1   3   47.63   10.70
   6  -1   4   66.92   10.54
   6  -1   5   45.70   13.12
   6  -1   6   47.05   13.29
   6   1  -9   54.14   16.70
   6   1  -8   26.44   14.42
   6   1  -7   33.79   12.78
   6   1  -6   24.76   12.94
   6   1  -5   33.04   13.24
   6   1  -4   41.60   12.68
   6   1  -3   69.87   13.19
   6   1  -2   90.10    9.64
   6   1  -1  118.68   14.45
   6   1   0  119.97   14.14
   6   1   1   67.62   12.05
   6   1   2   49.62   11.58
   6   1   3   36.47   10.77
   6   1   4   63.53   16.80
   6   1   5   27.53   11.28
   6   1   6   47.07   14.07
   6   1   7   61.09   15.48
   6   2  -9   13.22   14.15
   6   2  -8   17.56   14.06
   6   2  -7    9.32   13.41
   6   2  -6   40.11   14.75
   6   2  -5   29.82   13.47
   6   2  -4   31.30   13.39
   6   2  -3   60.38   13.87
   6   2  -2   36.78   12.30
   6   2  -1   49.36   12.68
   6   2   0   37.09   12.21
   6   2   1   16.07   11.33
   6   2   2   18.09   11.26
   6   2   3   38.99    8.86
   6   2   4   70.81   14.30
   6   2   5    4.70    8.17
   6   2   6   15.80   13.34
   6   2   7   22.23   15.07
   6   3  -8   21.87   15.74
   6   3  -7   26.44   14.31
   6   3  -6   36.71   14.09
   6   3  -5   45.98   14.92
   6   3  -4   43.76   13.76
   6   3  -3   61.82   15.03
   6   3  -2   87.65   15.00
   6   3  -1   46.12   14.61
   6   3   0   53.96   13.89
   6   3   1   42.52   13.87
   6   3   2   51.57    9.52
   6   3   3   55.25    9.60
   6   3   4   89.64   10.29
   6   3   5    9.61    8.53
   6   3   6   26.05   13.66
   6   3   7   29.80   15.10
   6   4  -6   39.71   16.21
   6   4  -5   28.86   14.64
   6   4  -4   28.57   14.28
   6   4  -3   44.05   15.11
   6   4  -2   61.46   15.37
   6   4  -1   56.48   14.77
   6   4   0   80.12   15.77
   6   4   1   26.71   14.99
   6   4   2   40.99   14.48
   6   4   3   27.95   14.44
   6   4   4   52.75   14.82
   6   4   5   13.70   13.32
   6   5  -1    1.07   14.73
   6   5   0   10.58   14.76
   6   5   1    0.91   14.07
   6   5   2   15.23   15.28
   6   5   3    9.12   14.97
   7  -5   1    4.05   14.15
   7  -5   2    1.84   13.25
   7  -4  -2   25.22   14.68
   7  -4  -1   44.52   16.00
   7  -4   0   48.13   14.32
   7  -4   1   27.11   14.52
   7  -4   2   14.29   13.33
   7  -3  -4   28.42   15.56
   7  -3  -3    3.11   13.98
   7  -3  -2   48.01   15.36
   7  -3  -1   36.84   14.76
   7  -3   0   40.00   13.95
   7  -3   1   31.45   14.08
   7  -3   2   18.89   13.27
   7  -3   3   27.16   12.84
   7  -2  -5    8.69   16.81
   7  -2  -4    1.67   13.83
   7  -2  -3    0.05   13.88
   7  -2  -2   21.68   13.70
   7  -2  -1   28.75   13.47
   7  -2   0   22.85   13.53
   7  -2   1   12.95   12.34
   7  -2   2    9.40   12.28
   7  -2   3   20.04   12.05
   7  -1  -5   22.99   13.29
   7  -1  -4    5.26    8.64
   7  -1  -3    3.28    8.71
   7  -1  -2   29.04   13.14
   7  -1  -1   19.08   11.46
   7  -1   0   41.43   12.05
   7  -1   1   13.92   11.15
   7  -1   2   32.57   11.60
   7  -1   3   17.87   12.47
   7   1  -5   57.16   15.15
   7   1  -4   15.83   14.43
   7   1  -3    0.05   13.28
   7   1  -2   17.44   11.84
   7   1  -1    9.58   10.00
   7   1   0   40.77   13.49
   7   1   1    8.44   11.82
   7   1   2   28.05   13.25
   7   1   3   13.80    8.96
   7   1   4   22.49   14.21
   7   2  -4   19.52   15.20
   7   2  -3    2.52   14.25
   7   2  -2   15.09   13.54
   7   2  -1    2.39   13.64
   7   2   0   38.00   14.20
   7   2   1    9.78   13.62
   7   2   2   14.68    9.57
   7   2   3    8.85    9.23
   7   2   4    8.76    9.53
   7   2   5   16.54   15.47
   7   3  -2   11.85   13.75
   7   3  -1   16.94   14.74
   7   3   0   43.03   15.91
   7   3   1   22.06   15.44
   7   3   2   45.15   14.32
   7   3   3   14.09   14.58
   7   3   4   30.13   15.45
   0   0   0    0.00    0.00
;
_shelx_hkl_checksum              43036
_shelx_shelxl_version_number     2014/7
_olex2_submission_special_instructions 'No special instructions were received'
loop_
_space_group_symop_operation_xyz
'x, y, z'
loop_
_atom_site_label
_atom_site_type_symbol
_atom_site_fract_x
_atom_site_fract_y
_atom_site_fract_z
_atom_site_U_iso_or_equiv
_atom_site_adp_type
_atom_site_occupancy
_atom_site_site_symmetry_order
_atom_site_calc_flag
_atom_site_refinement_flags_posn
_atom_site_refinement_flags_adp
Co1 Co 0.00016(15) 0.00005(13) 0.00012(12) 0.0145(3) Uani 1 1 d . .
O2 O -0.2783(10) -0.0181(7) 0.1284(6) 0.0207(13) Uani 1 1 d . U
O1W O 0.3358(10) 0.0246(8) -0.0241(6) 0.0221(14) Uani 1 1 d . .
H1WA H 0.3738 -0.0630 -0.0753 0.033 Uiso 1 1 d GR .
H1WB H 0.4178 0.0125 0.0485 0.033 Uiso 1 1 d GR .
O1 O 0.0692(11) 0.0042(8) 0.1956(6) 0.0175(15) Uani 1 1 d . U
C5 C -0.0417(19) 0.0161(14) 0.5694(11) 0.032(3) Uani 1 1 d . U
H5 H 0.0768 0.0405 0.6305 0.038 Uiso 1 1 calc R .
C6 C -0.0010(16) 0.0226(12) 0.4437(9) 0.021(2) Uani 1 1 d . U
H6 H 0.1428 0.0471 0.4209 0.025 Uiso 1 1 calc R .
C7 C -0.1230(14) -0.0075(10) 0.2185(8) 0.0146(17) Uani 1 1 d . U
C1 C -0.1779(15) -0.0080(12) 0.3532(9) 0.0216(19) Uani 1 1 d . U
O3 O -0.4915(14) -0.0695(11) 0.7647(8) 0.054(2) Uani 1 1 d . U
C4 C -0.2562(15) -0.0259(11) 0.6085(9) 0.0207(19) Uani 1 1 d . U
C2 C -0.3962(15) -0.0490(11) 0.3865(8) 0.0217(19) Uani 1 1 d . U
H2 H -0.5139 -0.0708 0.3245 0.026 Uiso 1 1 calc R .
C8 C -0.3001(15) -0.0300(11) 0.7415(8) 0.0200(18) Uani 1 1 d . U
C3 C -0.4326(16) -0.0564(11) 0.5127(9) 0.025(2) Uani 1 1 d . U
H3 H -0.5765 -0.0821 0.5349 0.030 Uiso 1 1 calc R .
O4 O -0.1355(12) 0.0002(9) 0.8190(6) 0.0213(16) Uani 1 1 d . U
N1 N -0.0017(17) 0.3189(12) -0.0054(10) 0.0113(18) Uani 1 1 d . .
N2 N 0.001(2) 0.6873(13) -0.0071(10) 0.019(2) Uani 1 1 d . .
C11 C -0.2287(16) 0.3793(12) -0.0120(10) 0.027(2) Uani 1 1 d . .
H11A H -0.3044 0.3215 0.0562 0.032 Uiso 1 1 calc R .
H11B H -0.3093 0.3383 -0.0911 0.032 Uiso 1 1 calc R .
C10 C 0.0947(19) 0.6120(11) -0.1240(9) 0.027(2) Uani 1 1 d . .
H10A H 0.0038 0.6500 -0.1989 0.033 Uiso 1 1 calc R .
H10B H 0.2447 0.6668 -0.1288 0.033 Uiso 1 1 calc R .
C14 C 0.1328(17) 0.6124(12) 0.1075(8) 0.027(2) Uani 1 1 d . .
H14A H 0.0701 0.6530 0.1825 0.032 Uiso 1 1 calc R .
H14B H 0.2853 0.6649 0.1106 0.032 Uiso 1 1 calc R .
C12 C -0.2275(17) 0.5958(13) -0.0021(12) 0.038(3) Uani 1 1 d . .
H12A H -0.3260 0.6437 -0.0707 0.046 Uiso 1 1 calc R .
H12B H -0.2840 0.6288 0.0765 0.046 Uiso 1 1 calc R .
C9 C 0.0992(17) 0.4027(12) -0.1208(8) 0.025(2) Uani 1 1 d . .
H9A H 0.2520 0.3674 -0.1199 0.030 Uiso 1 1 calc R .
H9B H 0.0166 0.3509 -0.1965 0.030 Uiso 1 1 calc R .
C13 C 0.1325(18) 0.3981(12) 0.1072(8) 0.028(2) Uani 1 1 d . .
H13A H 0.2842 0.3601 0.1082 0.034 Uiso 1 1 calc R .
H13B H 0.0717 0.3483 0.1826 0.034 Uiso 1 1 calc R .
loop_
_atom_site_aniso_label
_atom_site_aniso_U_11
_atom_site_aniso_U_22
_atom_site_aniso_U_33
_atom_site_aniso_U_23
_atom_site_aniso_U_13
_atom_site_aniso_U_12
Co1 0.0146(5) 0.0217(6) 0.0072(5) -0.0015(3) 0.0008(4) 0.0010(4)
O2 0.0218(18) 0.0214(17) 0.0190(17) -0.0001(12) 0.0027(13) 0.0015(12)
O1W 0.022(4) 0.023(3) 0.020(3) -0.008(2) -0.008(3) 0.005(2)
O1 0.0168(19) 0.0176(18) 0.0179(19) 0.0005(12) 0.0020(13) 0.0004(13)
C5 0.032(3) 0.032(3) 0.031(3) 0.0000(14) 0.0021(14) 0.0023(14)
C6 0.021(2) 0.022(2) 0.021(2) -0.0003(13) 0.0020(14) 0.0012(14)
C7 0.015(2) 0.014(2) 0.014(2) 0.0000(13) 0.0015(13) 0.0005(13)
C1 0.021(2) 0.022(2) 0.022(2) 0.0009(13) 0.0023(14) 0.0020(13)
O3 0.051(3) 0.060(3) 0.052(3) -0.002(2) 0.006(2) 0.002(2)
C4 0.021(2) 0.021(2) 0.021(2) 0.0005(13) 0.0025(13) 0.0015(13)
C2 0.022(2) 0.022(2) 0.021(2) 0.0004(13) 0.0021(13) 0.0011(13)
C8 0.020(2) 0.021(2) 0.020(2) -0.0004(13) 0.0022(13) 0.0017(13)
C3 0.025(2) 0.025(2) 0.025(2) -0.0002(13) 0.0026(14) 0.0015(13)
O4 0.022(2) 0.0220(19) 0.0202(19) -0.0005(12) 0.0023(13) 0.0009(13)
N1 0.013(4) 0.015(4) 0.005(4) -0.003(3) 0.000(3) 0.001(4)
N2 0.028(5) 0.020(5) 0.008(4) 0.007(3) 0.003(4) -0.001(4)
C11 0.022(5) 0.019(5) 0.038(6) 0.002(4) -0.003(4) -0.002(4)
C10 0.044(6) 0.018(5) 0.020(5) 0.000(3) 0.004(5) 0.004(4)
C14 0.035(6) 0.028(5) 0.015(5) -0.003(4) -0.011(4) 0.010(4)
C12 0.024(6) 0.031(6) 0.059(8) 0.011(5) 0.003(5) -0.001(4)
C9 0.031(6) 0.031(5) 0.014(5) 0.005(4) 0.005(4) 0.001(4)
C13 0.040(6) 0.028(5) 0.012(5) 0.001(3) -0.008(4) -0.006(4)
loop_
_atom_type_symbol
_atom_type_description
_atom_type_scat_dispersion_real
_atom_type_scat_dispersion_imag
_atom_type_scat_source
C C 0.0033 0.0016 'International Tables Vol C Tables 4.2.6.8 and 6.1.1.4'
H H 0.0000 0.0000 'International Tables Vol C Tables 4.2.6.8 and 6.1.1.4'
Co Co 0.3494 0.9721 'International Tables Vol C Tables 4.2.6.8 and 6.1.1.4'
N N 0.0061 0.0033 'International Tables Vol C Tables 4.2.6.8 and 6.1.1.4'
O O 0.0106 0.0060 'International Tables Vol C Tables 4.2.6.8 and 6.1.1.4'
loop_
_geom_angle_atom_site_label_1
_geom_angle_atom_site_label_2
_geom_angle_atom_site_label_3
_geom_angle
_geom_angle_site_symmetry_1
_geom_angle_site_symmetry_3
O1W Co1 O2 150.2(2) . .
O1W Co1 O1 91.1(3) . .
O1W Co1 N1 88.5(3) . .
O1W Co1 N2 90.8(4) . 1_545
O1 Co1 O2 59.0(2) . .
O1 Co1 N1 90.8(3) . .
O1 Co1 N2 92.6(3) . 1_545
O4 Co1 O2 108.7(3) 1_554 .
O4 Co1 O1W 101.1(3) 1_554 .
O4 Co1 O1 167.6(3) 1_554 .
O4 Co1 N1 87.6(3) 1_554 .
O4 Co1 N2 89.1(3) 1_554 1_545
N1 Co1 O2 91.2(3) . .
N2 Co1 O2 91.1(3) 1_545 .
N2 Co1 N1 176.5(5) 1_545 .
C7 O2 Co1 85.5(5) . .
Co1 O1W H1WA 112.0 . .
Co1 O1W H1WB 111.1 . .
H1WA O1W H1WB 107.1 . .
C7 O1 Co1 95.6(5) . .
C6 C5 H5 118.7 . .
C6 C5 C4 122.6(9) . .
C4 C5 H5 118.7 . .
C5 C6 H6 120.7 . .
C1 C6 C5 118.6(8) . .
C1 C6 H6 120.7 . .
O2 C7 C1 120.4(7) . .
O1 C7 O2 119.9(8) . .
O1 C7 C1 119.7(8) . .
C6 C1 C7 116.4(8) . .
C6 C1 C2 121.3(8) . .
C2 C1 C7 122.2(8) . .
C5 C4 C8 122.7(9) . .
C3 C4 C5 116.9(9) . .
C3 C4 C8 120.4(8) . .
C1 C2 H2 120.5 . .
C3 C2 C1 119.1(8) . .
C3 C2 H2 120.5 . .
O3 C8 C4 117.2(8) . .
O3 C8 O4 126.9(9) . .
O4 C8 C4 115.9(8) . .
C4 C3 H3 119.3 . .
C2 C3 C4 121.5(9) . .
C2 C3 H3 119.3 . .
C8 O4 Co1 149.1(7) . 1_556
C11 N1 Co1 110.7(6) . .
C11 N1 C9 106.3(9) . .
C11 N1 C13 110.8(9) . .
C9 N1 Co1 112.2(6) . .
C13 N1 Co1 109.4(6) . .
C13 N1 C9 107.4(9) . .
C10 N2 Co1 114.2(6) . 1_565
C14 N2 Co1 110.6(7) . 1_565
C14 N2 C10 108.2(9) . .
C12 N2 Co1 111.8(7) . 1_565
C12 N2 C10 107.4(10) . .
C12 N2 C14 104.2(9) . .
N1 C11 H11A 109.6 . .
N1 C11 H11B 109.6 . .
N1 C11 C12 110.3(7) . .
H11A C11 H11B 108.1 . .
C12 C11 H11A 109.6 . .
C12 C11 H11B 109.6 . .
N2 C10 H10A 109.3 . .
N2 C10 H10B 109.3 . .
H10A C10 H10B 108.0 . .
C9 C10 N2 111.5(7) . .
C9 C10 H10A 109.3 . .
C9 C10 H10B 109.3 . .
N2 C14 H14A 109.2 . .
N2 C14 H14B 109.2 . .
N2 C14 C13 112.1(7) . .
H14A C14 H14B 107.9 . .
C13 C14 H14A 109.2 . .
C13 C14 H14B 109.2 . .
N2 C12 C11 111.9(8) . .
N2 C12 H12A 109.2 . .
N2 C12 H12B 109.2 . .
C11 C12 H12A 109.2 . .
C11 C12 H12B 109.2 . .
H12A C12 H12B 107.9 . .
N1 C9 H9A 109.3 . .
N1 C9 H9B 109.3 . .
C10 C9 N1 111.7(7) . .
C10 C9 H9A 109.3 . .
C10 C9 H9B 109.3 . .
H9A C9 H9B 107.9 . .
N1 C13 C14 110.9(7) . .
N1 C13 H13A 109.5 . .
N1 C13 H13B 109.5 . .
C14 C13 H13A 109.5 . .
C14 C13 H13B 109.5 . .
H13A C13 H13B 108.0 . .
loop_
_geom_bond_atom_site_label_1
_geom_bond_atom_site_label_2
_geom_bond_distance
_geom_bond_site_symmetry_2
Co1 O2 2.264(6) .
Co1 O1W 2.065(6) .
Co1 O1 2.085(6) .
Co1 O4 2.024(7) 1_554
Co1 N1 2.263(8) .
Co1 N2 2.222(9) 1_545
O2 C7 1.275(9) .
O1W H1WA 0.8853 .
O1W H1WB 0.8841 .
O1 C7 1.207(10) .
C5 H5 0.9300 .
C5 C6 1.385(12) .
C5 C4 1.413(14) .
C6 H6 0.9300 .
C6 C1 1.378(12) .
C7 C1 1.504(12) .
C1 C2 1.411(12) .
O3 C8 1.221(11) .
C4 C8 1.467(12) .
C4 C3 1.411(12) .
C2 H2 0.9300 .
C2 C3 1.383(12) .
C8 O4 1.239(11) .
C3 H3 0.9300 .
O4 Co1 2.024(7) 1_556
N1 C11 1.456(15) .
N1 C9 1.525(14) .
N1 C13 1.478(14) .
N2 Co1 2.222(9) 1_565
N2 C10 1.529(15) .
N2 C14 1.503(15) .
N2 C12 1.496(16) .
C11 H11A 0.9700 .
C11 H11B 0.9700 .
C11 C12 1.540(12) .
C10 H10A 0.9700 .
C10 H10B 0.9700 .
C10 C9 1.487(12) .
C14 H14A 0.9700 .
C14 H14B 0.9700 .
C14 C13 1.520(12) .
C12 H12A 0.9700 .
C12 H12B 0.9700 .
C9 H9A 0.9700 .
C9 H9B 0.9700 .
C13 H13A 0.9700 .
C13 H13B 0.9700 .
loop_
_geom_torsion_atom_site_label_1
_geom_torsion_atom_site_label_2
_geom_torsion_atom_site_label_3
_geom_torsion_atom_site_label_4
_geom_torsion
_geom_torsion_site_symmetry_1
_geom_torsion_site_symmetry_4
Co1 O2 C7 O1 -0.4(7) . .
Co1 O2 C7 C1 179.1(6) . .
Co1 O1 C7 O2 0.4(8) . .
Co1 O1 C7 C1 -179.1(6) . .
Co1 N1 C11 C12 174.3(6) . .
Co1 N1 C9 C10 179.4(6) . .
Co1 N1 C13 C14 -179.3(6) . .
Co1 N2 C10 C9 177.8(6) 1_565 .
Co1 N2 C14 C13 178.6(6) 1_565 .
Co1 N2 C12 C11 177.9(6) 1_565 .
O2 C7 C1 C6 -173.8(7) . .
O2 C7 C1 C2 10.0(11) . .
O1 C7 C1 C6 5.7(11) . .
O1 C7 C1 C2 -170.5(7) . .
C5 C6 C1 C7 -177.5(8) . .
C5 C6 C1 C2 -1.3(12) . .
C5 C4 C8 O3 -179.4(8) . .
C5 C4 C8 O4 -2.1(12) . .
C5 C4 C3 C2 1.2(11) . .
C6 C5 C4 C8 -179.1(8) . .
C6 C5 C4 C3 -1.8(13) . .
C6 C1 C2 C3 0.7(12) . .
C7 C1 C2 C3 176.7(7) . .
C1 C2 C3 C4 -0.7(12) . .
O3 C8 O4 Co1 7.9(18) . 1_556
C4 C5 C6 C1 1.9(13) . .
C4 C8 O4 Co1 -169.1(8) . 1_556
C8 C4 C3 C2 178.5(7) . .
C3 C4 C8 O3 3.4(12) . .
C3 C4 C8 O4 -179.3(7) . .
N1 C11 C12 N2 8.2(10) . .
N2 C10 C9 N1 2.9(10) . .
N2 C14 C13 N1 -1.0(10) . .
C11 N1 C9 C10 58.3(10) . .
C11 N1 C13 C14 -57.1(11) . .
C10 N2 C14 C13 -55.7(11) . .
C10 N2 C12 C11 52.0(11) . .
C14 N2 C10 C9 54.2(12) . .
C14 N2 C12 C11 -62.6(11) . .
C12 N2 C10 C9 -57.7(11) . .
C12 N2 C14 C13 58.4(11) . .
C9 N1 C11 C12 -63.6(10) . .
C9 N1 C13 C14 58.6(10) . .
C13 N1 C11 C12 52.7(11) . .
C13 N1 C9 C10 -60.3(10) . .
loop_
_smtbx_masks_void_nr
_smtbx_masks_void_average_x
_smtbx_masks_void_average_y
_smtbx_masks_void_average_z
_smtbx_masks_void_volume
_smtbx_masks_void_count_electrons
1 -0.014 0.474 0.494 137.6 52.3
