#------------------------------------------------------------------------------
#$Date: 2019-11-24 04:12:18 +0200 (Sun, 24 Nov 2019) $
#$Revision: 236652 $
#$URL: file:///home/coder/svn-repositories/cod/cif/8/00/03/8000366.cif $
#------------------------------------------------------------------------------
#
# This file is available in the Crystallography Open Database (COD),
# http://www.crystallography.net/
#
# All data on this site have been placed in the public domain by the
# contributors.
#
data_8000366
loop_
_publ_author_name
'Andrzejewski, Micha\/l'
'Katrusiak, Andrzej'
_publ_section_title
;
 Piezochromic Porous Metal-Organic Framework.
;
_journal_issue                   1
_journal_name_full               'The journal of physical chemistry letters'
_journal_page_first              279
_journal_page_last               284
_journal_paper_doi               10.1021/acs.jpclett.6b02458
_journal_volume                  8
_journal_year                    2017
_chemical_formula_moiety         'C14 H18 Co N2 O5'
_chemical_formula_sum            'C14 H18 Co N2 O5'
_chemical_formula_weight         353.23
_chemical_name_common            AMU1
_chemical_name_systematic
;
Co(1,4-benzenedicarboxylate)(1,4-diazabicyclo[2.2.2]octane)H2O
;
_space_group_crystal_system      triclinic
_space_group_IT_number           1
_space_group_name_Hall           'P 1'
_space_group_name_H-M_alt        'P 1'
_atom_sites_solution_hydrogens   mixed
_atom_sites_solution_primary     direct
_audit_creation_date             2016-07-12
_audit_creation_method
;
Olex2 1.2
(compiled 2016.02.19 svn.r3266 for OlexSys, GUI svn.r5155)
;
_cell_angle_alpha                89.126(5)
_cell_angle_beta                 95.853(6)
_cell_angle_gamma                93.642(6)
_cell_formula_units_Z            1
_cell_length_a                   6.0076(5)
_cell_length_b                   7.0951(5)
_cell_length_c                   10.6488(7)
_cell_measurement_reflns_used    3699
_cell_measurement_temperature    160(2)
_cell_measurement_theta_max      58.182
_cell_measurement_theta_min      5.754
_cell_volume                     450.60(6)
_computing_molecular_graphics    'Olex2 (Dolomanov et al., 2009)'
_computing_publication_material  'Olex2 (Dolomanov et al., 2009)'
_computing_structure_refinement  'ShelXL (Sheldrick, 2015)'
_computing_structure_solution    'ShelXS (Sheldrick, 2008)'
_diffrn_ambient_temperature      160(2)
_diffrn_measured_fraction_theta_full 0.914
_diffrn_measured_fraction_theta_max 0.818
_diffrn_measurement_device_type  'multiwire proportional'
_diffrn_measurement_method       'phi and omega scans'
_diffrn_radiation_monochromator  graphite
_diffrn_radiation_type           MoK\a
_diffrn_radiation_wavelength     0.71073
_diffrn_reflns_av_R_equivalents  0.0556
_diffrn_reflns_av_unetI/netI     0.1331
_diffrn_reflns_Laue_measured_fraction_full 0.914
_diffrn_reflns_Laue_measured_fraction_max 0.818
_diffrn_reflns_limit_h_max       7
_diffrn_reflns_limit_h_min       -8
_diffrn_reflns_limit_k_max       9
_diffrn_reflns_limit_k_min       -9
_diffrn_reflns_limit_l_max       13
_diffrn_reflns_limit_l_min       -13
_diffrn_reflns_number            6280
_diffrn_reflns_point_group_measured_fraction_full 0.914
_diffrn_reflns_point_group_measured_fraction_max 0.818
_diffrn_reflns_theta_full        26.000
_diffrn_reflns_theta_max         29.091
_diffrn_reflns_theta_min         2.877
_exptl_absorpt_coefficient_mu    0.973
_exptl_absorpt_correction_T_max  0.907
_exptl_absorpt_correction_T_min  0.890
_exptl_absorpt_correction_type   multi-scan
_exptl_absorpt_process_details
;
Data were collected and reduced by program CrysAlisPro, 
and SCALE3 ABSPACK was used for absorption correction
;
_exptl_crystal_colour            purple
_exptl_crystal_density_diffrn    1.302
_exptl_crystal_description       plate
_exptl_crystal_F_000             183
_exptl_crystal_size_max          0.3
_exptl_crystal_size_mid          0.1
_exptl_crystal_size_min          0.1
_refine_diff_density_max         0.503
_refine_diff_density_min         -0.425
_refine_diff_density_rms         0.086
_refine_ls_abs_structure_details
;
 Refined as a perfect inversion twin.
;
_refine_ls_abs_structure_Flack   0.5
_refine_ls_extinction_method     none
_refine_ls_goodness_of_fit_ref   0.970
_refine_ls_hydrogen_treatment    constr
_refine_ls_matrix_type           full
_refine_ls_number_parameters     200
_refine_ls_number_reflns         3699
_refine_ls_number_restraints     129
_refine_ls_restrained_S_all      0.960
_refine_ls_R_factor_all          0.0750
_refine_ls_R_factor_gt           0.0582
_refine_ls_shift/su_max          0.000
_refine_ls_shift/su_mean         0.000
_refine_ls_structure_factor_coef Fsqd
_refine_ls_weighting_details
'w=1/[\s^2^(Fo^2^)+(0.0610P)^2^] where P=(Fo^2^+2Fc^2^)/3'
_refine_ls_weighting_scheme      calc
_refine_ls_wR_factor_gt          0.1288
_refine_ls_wR_factor_ref         0.1341
_reflns_Friedel_coverage         1.000
_reflns_Friedel_fraction_full    0.914
_reflns_Friedel_fraction_max     0.818
_reflns_number_gt                2806
_reflns_number_total             3699
_reflns_threshold_expression     'I > 2\s(I)'
_cod_data_source_file            jz6b02458_si_004.cif
_cod_data_source_block           160K_P1
_cod_database_code               8000366
_shelx_space_group_comment
;
The symmetry employed for this shelxl refinement is uniquely defined
by the following loop, which should always be used as a source of
symmetry information in preference to the above space-group names.
They are only intended as comments.
;
_olex2_refinement_description
;
1. Fixed Uiso
 At 1.2 times of:
  All C(H) groups, All C(H,H) groups
 At 1.5 times of:
  All O(H,H) groups
2. Uiso/Uaniso restraints and constraints
Uanis(O1) \\sim Ueq, Uanis(C6) \\sim Ueq, Uanis(C5) \\sim Ueq, Uanis(O4) \\sim
Ueq, Uanis(C4) \\sim Ueq, Uanis(O3) \\sim Ueq, Uanis(C8) \\sim Ueq, Uanis(O2)
\\sim Ueq, Uanis(C7) \\sim Ueq, Uanis(C1) \\sim Ueq, Uanis(C3) \\sim Ueq,
Uanis(C2) \\sim Ueq: with sigma of 0.001 and sigma for terminal atoms of 0.002
Uanis(N1) \\sim Ueq, Uanis(C11) \\sim Ueq, Uanis(N2) \\sim Ueq, Uanis(C14)
\\sim Ueq, Uanis(C9) \\sim Ueq, Uanis(C13) \\sim Ueq, Uanis(C12) \\sim Ueq,
Uanis(C10) \\sim Ueq: with sigma of 0.001 and sigma for terminal atoms of 0.002
Uanis(O1W) \\sim Ueq: with sigma of 0.001 and sigma for terminal atoms of 0.002
3.a Rotating group:
 O1W(H1WA,H1WB)
3.b Secondary CH2 refined with riding coordinates:
 C11(H11A,H11B), C14(H14A,H14B), C9(H9A,H9B), C13(H13A,H13B), C12(H12A,H12B),
 C10(H10A,H10B)
3.c Aromatic/amide H refined with riding coordinates:
 C6(H6), C5(H5), C3(H3), C2(H2)
;
_shelx_hkl_file
;
  -8  -1   0   30.86   16.16
  -8  -1   1   12.71   15.22
  -8  -1   2    3.38   15.31
  -7  -4   1    3.06   16.17
  -7  -3  -3    3.41   15.17
  -7  -3  -2   27.68   15.50
  -7  -3  -1   11.54   15.00
  -7  -3   0   60.83   15.50
  -7  -3   1   23.76   14.04
  -7  -3   2   26.38   14.05
  -7  -3   3   14.86   14.83
  -7  -3   4    4.50   13.79
  -7  -3   5   35.51   16.03
  -7  -3   6   12.11   15.27
  -7  -2  -3    9.42   13.19
  -7  -2  -2   18.68   13.47
  -7  -2  -1    0.65   13.33
  -7  -2   0   34.51    9.74
  -7  -2   1    8.40    9.16
  -7  -2   2   24.91   13.48
  -7  -2   3   11.23   13.36
  -7  -2   4    8.01   13.50
  -7  -2   5   18.94   13.17
  -7  -2   6    1.34   13.17
  -7  -1  -6   30.33   16.26
  -7  -1  -5   14.07   15.55
  -7  -1  -4   32.41   14.33
  -7  -1  -1    4.94    9.94
  -7  -1   0   53.13   14.15
  -7  -1   1    4.66   13.47
  -7  -1   2   16.23   10.52
  -7  -1   3    4.42   11.86
  -7  -1   4   22.77   11.89
  -7  -1   5   29.25   13.11
  -7  -1   6   24.27   12.30
  -7   1  -3   25.01   14.44
  -7   1  -2   20.32   12.13
  -7   1  -1   11.95   12.62
  -7   1   0   36.24   12.68
  -7   1   1   21.54   14.14
  -7   1   2   46.06   12.39
  -7   1   3   10.67    8.77
  -7   1   4   34.54    9.65
  -7   1   5   38.51   12.57
  -7   1   6   42.90   10.85
  -7   1   7   21.48   12.61
  -7   2  -3    0.62   15.82
  -7   2  -2   20.13   15.20
  -7   2  -1   14.76   14.81
  -7   2   0   29.81   15.18
  -7   2   1   17.55   11.16
  -7   2   2   21.85    9.95
  -7   2   3    9.52   11.39
  -7   2   4    1.76    9.83
  -7   2   5    0.57   10.19
  -7   2   6   10.48   10.54
  -7   3  -1   20.55   14.81
  -7   3   0   61.67   17.10
  -7   3   1   45.29   10.45
  -7   3   2   46.62   10.69
  -7   3   3   26.23   10.30
  -7   3   4   35.04   10.80
  -7   3   5   17.26   15.31
  -7   4   1   42.60   14.50
  -7   4   2   23.12   14.88
  -7   4   3   15.67   15.37
  -7   4   4   34.33   16.02
  -7   5   0    6.15   13.23
  -7   5   1   10.67   14.74
  -6  -5  -1    1.17   15.60
  -6  -5   0   13.45   16.43
  -6  -5   1    3.15   15.79
  -6  -5   2   11.87   16.15
  -6  -5   3   13.64   16.70
  -6  -4  -4   93.14   18.28
  -6  -4  -3   27.14   15.85
  -6  -4  -2   27.73   14.06
  -6  -4  -1    9.63   13.83
  -6  -4   0   79.35   16.44
  -6  -4   1   55.81   16.06
  -6  -4   2   81.16   16.99
  -6  -4   3   36.18   15.33
  -6  -4   4   49.25   15.79
  -6  -4   5   30.38   16.07
  -6  -4   6   25.62   16.07
  -6  -3  -5    8.24   14.53
  -6  -3  -4   68.72   16.07
  -6  -3  -3   86.33   16.24
  -6  -3  -2   72.85   15.43
  -6  -3  -1   45.79   14.28
  -6  -3   0   62.97   14.93
  -6  -3   1   55.54   14.87
  -6  -3   2   86.75   15.50
  -6  -3   3   67.47   14.60
  -6  -3   4   62.31   15.34
  -6  -3   5   47.38   13.92
  -6  -3   6   30.01   14.34
  -6  -3   7   32.16   14.25
  -6  -3   8   20.23   15.37
  -6  -2  -7   40.36   17.25
  -6  -2  -6   32.84   16.01
  -6  -2  -5    9.43   14.30
  -6  -2  -4   69.17   14.17
  -6  -2  -3   35.65   13.51
  -6  -2  -2   14.78   12.18
  -6  -2  -1   19.07   11.86
  -6  -2   0   33.10    8.44
  -6  -2   1   25.89    7.56
  -6  -2   2   48.29    8.48
  -6  -2   3   70.15   15.64
  -6  -2   4   48.16    8.64
  -6  -2   5   22.36    8.17
  -6  -2   6   11.88   11.66
  -6  -2   7   16.59   13.41
  -6  -2   8    5.20   12.78
  -6  -2   9   31.05   14.09
  -6  -1  -7   77.24   17.79
  -6  -1  -6   49.90   14.39
  -6  -1  -5   27.22   12.24
  -6  -1  -4   71.55   13.79
  -6  -1  -3   62.02   11.78
  -6  -1  -2   45.50   10.46
  -6  -1  -1   67.59    8.68
  -6  -1   0   97.28    9.09
  -6  -1   1  107.62   11.89
  -6  -1   2   84.38   11.19
  -6  -1   3   85.10    8.84
  -6  -1   4   67.80    8.58
  -6  -1   5   40.09    7.68
  -6  -1   6   29.25    7.83
  -6  -1   7   39.34    8.41
  -6  -1   8   28.72    8.37
  -6  -1   9   52.88   10.33
  -6  -1  10   33.73   13.29
  -6   1  -3   54.85   13.36
  -6   1  -2   76.20   14.45
  -6   1  -1   60.96   13.32
  -6   1   0   68.73    9.66
  -6   1   1   87.97   10.56
  -6   1   2   86.15    9.05
  -6   1   3  128.25   10.77
  -6   1   4   55.87    8.66
  -6   1   5   43.86   12.87
  -6   1   6   12.03   10.09
  -6   1   7   39.58   13.64
  -6   1   8   10.02   13.88
  -6   1   9   30.48   13.90
  -6   2  -3   26.88   14.22
  -6   2  -2  121.47   16.13
  -6   2  -1   56.58    7.73
  -6   2   0   32.76    8.42
  -6   2   1   17.31    8.17
  -6   2   2   44.40    9.21
  -6   2   3   99.13   10.14
  -6   2   4   22.63    9.09
  -6   2   5   35.46    9.61
  -6   2   6   22.98    9.49
  -6   2   7   63.79   11.10
  -6   2   8   10.64   10.06
  -6   2   9   20.33   14.86
  -6   3  -4   79.15   16.13
  -6   3  -3   82.30   15.71
  -6   3  -2  145.04   10.84
  -6   3  -1   61.67    9.57
  -6   3   0   41.80    8.46
  -6   3   1   41.50    9.23
  -6   3   2   86.81   10.31
  -6   3   3  176.81   13.22
  -6   3   4   66.86   10.42
  -6   3   5   71.99   11.49
  -6   3   6   54.46   10.65
  -6   3   7   59.49   11.21
  -6   3   8   20.75   12.10
  -6   4  -4   20.73   15.87
  -6   4  -3   46.47   16.30
  -6   4  -2  136.56   11.22
  -6   4  -1   38.41    9.79
  -6   4   0   51.71   10.01
  -6   4   1   68.57    9.99
  -6   4   2   75.69   11.19
  -6   4   3  114.52   11.03
  -6   4   4   33.39   13.44
  -6   4   5   30.07   10.24
  -6   4   6   33.22   16.37
  -6   4   7   31.88   11.80
  -6   5  -3   27.02   15.78
  -6   5  -2   91.91   12.12
  -6   5  -1    3.87    9.80
  -6   5   0    8.35    9.79
  -6   5   1    8.52    9.63
  -6   5   2   38.45   10.67
  -6   5   3   57.83   11.98
  -6   5   4   11.02   10.41
  -6   5   5   15.62   11.01
  -6   6  -2  119.30   18.36
  -6   6  -1    4.54   10.75
  -6   6   0   22.30   13.59
  -6   6   1   36.84   11.18
  -6   6   2   78.35   12.58
  -5  -6  -2   60.06   17.86
  -5  -6  -1   38.03   17.90
  -5  -6   0   46.36   17.94
  -5  -6   1   53.91   18.08
  -5  -6   2   42.13   17.69
  -5  -6   3   59.30   17.92
  -5  -5  -5   23.53   17.02
  -5  -5  -4   41.63   16.33
  -5  -5  -3   56.80   16.69
  -5  -5  -2   92.29   17.37
  -5  -5  -1    9.17   15.03
  -5  -5   0    0.88   14.69
  -5  -5   1   16.98   15.04
  -5  -5   2   46.71   15.53
  -5  -5   3  102.67   17.63
  -5  -5   4   50.88   15.59
  -5  -5   5   36.81   15.81
  -5  -5   6   20.59   14.52
  -5  -4  -6   28.04   15.09
  -5  -4  -5   19.11   14.76
  -5  -4  -4   23.74   13.96
  -5  -4  -3   36.09   13.74
  -5  -4  -2  100.45   15.72
  -5  -4  -1   16.40   12.29
  -5  -4   0   36.81   14.07
  -5  -4   1   29.20   12.78
  -5  -4   2   52.19   14.32
  -5  -4   3  118.69   15.94
  -5  -4   4   19.76   13.05
  -5  -4   5   35.17   13.08
  -5  -4   6   13.28   13.11
  -5  -4   7   45.42   15.18
  -5  -4   8   12.34   14.75
  -5  -3  -7   47.10   16.60
  -5  -3  -6   36.46   15.10
  -5  -3  -5   38.34   14.11
  -5  -3  -4   80.87   14.22
  -5  -3  -3  121.39   16.35
  -5  -3  -2  323.52   19.71
  -5  -3  -1   47.67   12.75
  -5  -3   0   43.97   12.94
  -5  -3   1   31.65    6.92
  -5  -3   2  115.55   12.30
  -5  -3   3  213.37   10.76
  -5  -3   4   68.98   12.70
  -5  -3   5  101.72   15.26
  -5  -3   6  103.23   15.80
  -5  -3   7  125.58   15.58
  -5  -3   8   37.68   14.08
  -5  -3   9   56.48   16.18
  -5  -2  -8    8.75   15.58
  -5  -2  -7   19.13   15.54
  -5  -2  -6   28.43   14.20
  -5  -2  -5   27.29   12.58
  -5  -2  -4   29.64   12.54
  -5  -2  -3   43.37   11.75
  -5  -2  -2  244.63   17.05
  -5  -2  -1   15.09    8.84
  -5  -2   0    9.64    6.47
  -5  -2   1   16.70    6.42
  -5  -2   2   98.11    8.44
  -5  -2   3  184.31    9.37
  -5  -2   4   25.02    7.18
  -5  -2   5   62.09    7.59
  -5  -2   6   64.97    7.73
  -5  -2   7   63.57    8.47
  -5  -2   8   23.86    7.84
  -5  -2   9   26.55   13.52
  -5  -2  10   16.66   13.81
  -5  -1  -9   29.02   15.07
  -5  -1  -8   36.44   14.70
  -5  -1  -7   39.07   13.96
  -5  -1  -6   28.99   12.72
  -5  -1  -5   11.47   11.01
  -5  -1  -4    0.52   10.25
  -5  -1  -3   19.13    9.99
  -5  -1  -2  249.35   20.28
  -5  -1  -1   13.55    6.12
  -5  -1   0   28.83    6.54
  -5  -1   1   25.99    6.39
  -5  -1   2  111.92   10.05
  -5  -1   3  132.16    9.53
  -5  -1   4    5.84    4.01
  -5  -1   5   29.81    6.40
  -5  -1   6   58.24    8.03
  -5  -1   7   52.24   10.08
  -5  -1   8   15.94    6.66
  -5  -1   9   25.58   11.27
  -5  -1  10   37.10    8.95
  -5  -1  11   80.16   11.26
  -5  -1  12   15.53   11.18
  -5   1 -10    3.17   16.23
  -5   1  -9   16.77   11.70
  -5   1  -8   30.91   11.92
  -5   1  -7   36.88   11.58
  -5   1  -6   16.01    7.17
  -5   1  -5   14.46    8.96
  -5   1  -4    4.52    7.90
  -5   1  -3   16.63    6.00
  -5   1  -2  173.44    6.58
  -5   1  -1   15.70    6.53
  -5   1   0   36.41    4.50
  -5   1   1   37.77    4.58
  -5   1   2   92.29    5.69
  -5   1   3   83.07   10.77
  -5   1   4   18.34    5.46
  -5   1   5   32.59    5.34
  -5   1   6   64.15    7.56
  -5   1   7   20.89    6.21
  -5   1   8   34.62    7.53
  -5   1   9   38.89   13.54
  -5   1  10   42.38   14.19
  -5   1  11   64.54   14.35
  -5   2  -8   36.09   12.46
  -5   2  -7   37.87   12.16
  -5   2  -6    3.60    9.85
  -5   2  -5   10.87    8.78
  -5   2  -4   24.88    7.36
  -5   2  -3   69.76    5.59
  -5   2  -2  244.21    7.92
  -5   2  -1    1.45    4.32
  -5   2   0   24.57    4.32
  -5   2   1   24.08    7.17
  -5   2   2   46.37    7.80
  -5   2   3   56.15    8.52
  -5   2   4   19.69    7.63
  -5   2   5   55.96   14.94
  -5   2   6  149.15   16.11
  -5   2   7   45.52    9.70
  -5   2   8   66.79   14.12
  -5   2   9   43.61   15.03
  -5   2  10   18.27   14.82
  -5   3  -4   79.64    8.76
  -5   3  -3  147.85   12.81
  -5   3  -2  294.73   12.31
  -5   3  -1    8.13    6.96
  -5   3   0   49.66    8.61
  -5   3   1   65.38    8.54
  -5   3   2   77.95    9.34
  -5   3   3  115.37    9.87
  -5   3   4   93.96   10.57
  -5   3   5  113.12    9.98
  -5   3   6  240.86   28.25
  -5   3   7   61.76   10.20
  -5   3   8   71.38   11.15
  -5   3   9   57.99   11.25
  -5   3  10   60.83   11.73
  -5   4  -4    4.18    7.84
  -5   4  -3   15.57    8.54
  -5   4  -2   92.53    9.65
  -5   4  -1    0.37    7.67
  -5   4   0   43.59    8.62
  -5   4   1   60.29   12.32
  -5   4   2   29.16    9.71
  -5   4   3   36.17    8.87
  -5   4   4    8.35    8.91
  -5   4   5    7.56    8.87
  -5   4   6   54.78   11.13
  -5   4   7   34.19   10.37
  -5   4   8   28.82   10.81
  -5   4   9   34.13   11.92
  -5   5  -4   32.16   10.03
  -5   5  -3   76.87   10.24
  -5   5  -2  131.96   12.15
  -5   5  -1    8.96    8.83
  -5   5   0   13.82   13.55
  -5   5   1    6.09    8.71
  -5   5   2    8.94    8.71
  -5   5   3   38.20    8.97
  -5   5   4   34.60   10.12
  -5   5   5   49.16    9.95
  -5   5   6  141.97   13.23
  -5   5   7   40.17   11.03
  -5   5   8   27.97   11.49
  -5   6  -4    9.53    9.89
  -5   6  -3   23.25   10.61
  -5   6  -2   58.58   10.52
  -5   6  -1    9.56    9.37
  -5   6   0   18.72    9.24
  -5   6   1   49.88   10.17
  -5   6   2   25.31    9.84
  -5   6   3   49.57   11.10
  -5   6   4   21.01   11.44
  -5   6   5   16.42   10.58
  -5   6   6   56.26   11.43
  -5   7  -4    4.44   10.81
  -5   7  -3   19.87   10.43
  -5   7  -2   36.56   11.74
  -5   7  -1    6.49   10.51
  -5   7   0    8.59   10.30
  -5   7   1   22.51   10.53
  -5   7   2   13.19   10.98
  -5   7   3   22.31   14.28
  -5   7   4   18.05   15.36
  -5   8   0    0.91   15.10
  -4  -7  -2   75.33   18.29
  -4  -7  -1    4.43   16.37
  -4  -7   0    4.74   15.24
  -4  -7   1   10.53   16.27
  -4  -7   2   32.31   17.07
  -4  -7   3   46.85   16.80
  -4  -6  -5   12.30   15.49
  -4  -6  -4   15.10   14.91
  -4  -6  -3   32.28   15.02
  -4  -6  -2   86.65   16.37
  -4  -6  -1    0.26   14.54
  -4  -6   0   38.67   15.27
  -4  -6   1   43.17   15.42
  -4  -6   2   48.28   15.14
  -4  -6   3   20.93   15.51
  -4  -6   4    1.27   14.52
  -4  -6   5   22.00   15.06
  -4  -6   6   27.78   11.02
  -4  -6   7   44.24   16.60
  -4  -6   8   33.90   17.02
  -4  -5  -7    1.42   15.51
  -4  -5  -6   25.37   16.28
  -4  -5  -5   19.09   14.65
  -4  -5  -4   59.43   15.19
  -4  -5  -3   80.36   16.11
  -4  -5  -2  183.84   17.91
  -4  -5  -1    0.49   12.72
  -4  -5   0   13.59   12.28
  -4  -5   1    5.80   12.44
  -4  -5   2   25.17   12.80
  -4  -5   3   32.62   13.21
  -4  -5   4   16.01   13.91
  -4  -5   5   55.04   14.40
  -4  -5   6   76.72   11.40
  -4  -5   7   46.85   10.53
  -4  -5   8   21.95   10.10
  -4  -5   9    1.80   14.69
  -4  -5  10    0.17   15.99
  -4  -4  -8   60.24   17.84
  -4  -4  -7   65.69   17.49
  -4  -4  -6    3.06   13.12
  -4  -4  -5    8.08   13.09
  -4  -4  -4   11.26   11.63
  -4  -4  -3   27.30   12.21
  -4  -4  -2  139.97   15.07
  -4  -4  -1    0.05   11.42
  -4  -4   0   38.63   12.29
  -4  -4   1   50.25   13.12
  -4  -4   2   60.12   13.05
  -4  -4   3   25.43   12.27
  -4  -4   4   10.05   10.97
  -4  -4   5    1.57    9.21
  -4  -4   6   18.81    8.28
  -4  -4   7   49.23    9.50
  -4  -4   8   53.35   10.09
  -4  -4   9   45.18   10.51
  -4  -4  10   22.26   10.29
  -4  -3  -9   79.46   18.15
  -4  -3  -8   82.03   17.87
  -4  -3  -7  152.33   17.80
  -4  -3  -6   46.13   14.19
  -4  -3  -5   29.97   12.01
  -4  -3  -4  179.09   16.73
  -4  -3  -3  155.13   14.40
  -4  -3  -2  340.65   19.57
  -4  -3  -1    3.11    9.92
  -4  -3   0   94.07   12.90
  -4  -3   1  115.69    7.03
  -4  -3   2  101.26   17.00
  -4  -3   3   91.74    6.33
  -4  -3   4   50.79    6.81
  -4  -3   5  104.91    5.68
  -4  -3   6  181.70    8.27
  -4  -3   7  109.41    9.30
  -4  -3   8   75.89   14.38
  -4  -3   9   45.09    9.15
  -4  -3  10   13.48   13.74
  -4  -3  11   12.02   14.56
  -4  -2 -10   12.88   10.86
  -4  -2  -9   32.07   12.52
  -4  -2  -8   33.08    9.51
  -4  -2  -7   97.04   10.14
  -4  -2  -6    0.43   11.94
  -4  -2  -4   79.73   11.31
  -4  -2  -3   64.29    8.52
  -4  -2  -2  240.98    6.98
  -4  -2  -1    1.63    5.90
  -4  -2   0   47.47    6.15
  -4  -2   1   42.71    6.46
  -4  -2   2   34.42    5.77
  -4  -2   3   32.33    6.24
  -4  -2   4   18.03    5.29
  -4  -2   5   54.29    7.44
  -4  -2   6  126.90    6.23
  -4  -2   7   79.03    6.65
  -4  -2   8   47.83    6.18
  -4  -2   9   31.08    6.42
  -4  -2  10    7.52    9.97
  -4  -2  11    0.73   12.12
  -4  -1 -11   15.93   14.91
  -4  -1 -10   19.99   10.08
  -4  -1  -9  102.89   17.20
  -4  -1  -8  129.11   16.54
  -4  -1  -7  133.45   15.55
  -4  -1  -6    8.81    9.53
  -4  -1  -5    6.55   12.36
  -4  -1  -4   36.93   10.80
  -4  -1  -3   37.26    4.34
  -4  -1  -2  153.69   10.61
  -4  -1  -1   14.14    5.35
  -4  -1   0   87.28    7.14
  -4  -1   1  115.69    6.77
  -4  -1   2   61.58    6.05
  -4  -1   3   27.00    4.83
  -4  -1   4    4.11    5.64
  -4  -1   5    7.84    5.28
  -4  -1   6   51.59    6.41
  -4  -1   7  149.35   14.77
  -4  -1   8   63.53   17.80
  -4  -1   9   56.29   10.47
  -4  -1  10   12.79   12.77
  -4  -1  11    1.21   11.82
  -4  -1  12   34.70    9.94
  -4  -1  13   11.60   14.21
  -4   1 -11   18.60   13.32
  -4   1 -10   20.21   12.39
  -4   1  -9   93.85   14.98
  -4   1  -8   72.83   12.61
  -4   1  -7   96.63   11.60
  -4   1  -6    4.22    9.72
  -4   1  -5    6.26    8.81
  -4   1  -4   17.75    4.68
  -4   1  -3   33.13    3.72
  -4   1  -2   98.72    5.19
  -4   1  -1   29.06    3.61
  -4   1   0   94.77    8.23
  -4   1   1  100.24    5.53
  -4   1   2  108.18    4.75
  -4   1   3   61.52    9.82
  -4   1   4    8.57    5.06
  -4   1   5   11.71    4.84
  -4   1   6   63.13   11.91
  -4   1   7  152.99   12.90
  -4   1   8   45.40   12.18
  -4   1   9   74.61   13.29
  -4   1  10    1.98    2.79
  -4   1  11    2.01    9.97
  -4   1  12   45.00   14.09
  -4   2 -11   34.11   15.68
  -4   2 -10   25.01   12.66
  -4   2  -9   67.95   14.21
  -4   2  -8   65.93   13.60
  -4   2  -7   93.35   13.35
  -4   2  -6   11.11    9.03
  -4   2  -5   43.47    6.35
  -4   2  -4   54.28    4.73
  -4   2  -3  105.38    6.31
  -4   2  -2  126.24    6.04
  -4   2  -1   38.85    5.33
  -4   2   0   51.80    3.69
  -4   2   1   54.16    2.56
  -4   2   2   65.89    3.31
  -4   2   3   48.22    3.50
  -4   2   4   40.70    3.33
  -4   2   5   45.02    8.54
  -4   2   6   84.83   11.78
  -4   2   7  189.38   17.27
  -4   2   8   36.86   12.07
  -4   2   9   26.68   12.88
  -4   2  10    0.60   12.72
  -4   2  11    5.23   14.28
  -4   3 -11   58.75   16.04
  -4   3 -10   38.85   13.49
  -4   3  -9   99.99   14.55
  -4   3  -8   87.24   13.21
  -4   3  -7  117.08   12.99
  -4   3  -6   34.15   10.20
  -4   3  -5   95.86    6.30
  -4   3  -4  112.05    6.97
  -4   3  -3  215.69    6.63
  -4   3  -2  201.34    8.50
  -4   3  -1  137.16    3.70
  -4   3   0  131.68   12.08
  -4   3   1  128.96   11.02
  -4   3   2  165.91    9.61
  -4   3   3  131.66    9.02
  -4   3   4   92.95    4.93
  -4   3   5   90.73    8.83
  -4   3   6  113.10   10.85
  -4   3   7  241.44   12.17
  -4   3   8   72.06   10.81
  -4   3   9   56.14   10.01
  -4   3  10   14.62    9.83
  -4   3  11   16.21   10.99
  -4   4  -6   22.68    9.90
  -4   4  -5   15.26   10.07
  -4   4  -4    7.23    7.17
  -4   4  -3   47.32    8.89
  -4   4  -2   52.31    7.54
  -4   4  -1   54.78    8.46
  -4   4   0   66.94    7.79
  -4   4   1   80.67   13.32
  -4   4   2  145.88    9.54
  -4   4   3   51.25    8.36
  -4   4   4    8.11    7.61
  -4   4   5    5.01    8.61
  -4   4   6   16.24    8.42
  -4   4   7  119.52   11.75
  -4   4   8   26.49    9.49
  -4   4   9   37.23   10.81
  -4   4  10   17.86   10.84
  -4   4  11   11.57   16.21
  -4   5  -6   24.37   12.67
  -4   5  -5   30.19   12.23
  -4   5  -4   49.58    8.97
  -4   5  -3  102.56   11.61
  -4   5  -2   74.41    9.70
  -4   5  -1   39.38    7.99
  -4   5   0   24.09    8.16
  -4   5   1   35.74    8.40
  -4   5   2   40.86    8.64
  -4   5   3   32.74    8.38
  -4   5   4   28.14    8.89
  -4   5   5   44.08    8.69
  -4   5   6   38.51    9.88
  -4   5   7  120.56   11.52
  -4   5   8   12.07   10.16
  -4   5   9    6.02   10.38
  -4   6  -6   47.43   14.61
  -4   6  -5   14.42   12.96
  -4   6  -4   27.88    9.64
  -4   6  -3   57.80   10.23
  -4   6  -2   42.72    9.28
  -4   6  -1   53.83    9.89
  -4   6   0   77.57   14.12
  -4   6   1   83.03   11.33
  -4   6   2  161.18   12.84
  -4   6   3   57.08    9.81
  -4   6   4   21.31    9.63
  -4   6   5    9.42    9.72
  -4   6   6   17.71    9.91
  -4   6   7   99.18   12.19
  -4   6   8   46.23   12.49
  -4   7  -5   33.18   15.56
  -4   7  -4   27.09   10.07
  -4   7  -3   46.80   10.09
  -4   7  -2   25.63   10.53
  -4   7  -1   31.35    9.43
  -4   7   0   30.18    9.75
  -4   7   1   30.35    9.43
  -4   7   2   68.42   10.76
  -4   7   3   35.31   18.55
  -4   7   4   23.64    9.66
  -4   7   5    3.63    9.98
  -4   7   6   13.98   14.38
  -4   7   7   71.16   16.81
  -4   8   1   14.59   14.09
  -4   8   2   17.23   12.46
  -4   8   3    7.11   12.29
  -4   8   4   15.95   14.50
  -4   8   5    1.89   14.29
  -3  -8  -1    1.00   16.71
  -3  -8   0    9.25   16.75
  -3  -8   1    0.98   17.16
  -3  -8   2    0.13   16.41
  -3  -7  -5   47.05   16.65
  -3  -7  -4   51.68   16.69
  -3  -7  -3   38.13   15.86
  -3  -7  -2   77.31   17.52
  -3  -7  -1    6.54   14.52
  -3  -7   0   52.49   16.49
  -3  -7   1   59.21   16.51
  -3  -7   2   27.39   15.15
  -3  -7   3   29.74   14.79
  -3  -7   4   12.59   15.00
  -3  -7   5   11.63   10.95
  -3  -7   6   47.11   16.04
  -3  -6  -7   84.20   18.68
  -3  -6  -6   27.99   15.84
  -3  -6  -5   33.28   16.10
  -3  -6  -4   65.70   14.88
  -3  -6  -3   61.22   15.80
  -3  -6  -2   85.61   14.29
  -3  -6  -1   59.54   15.58
  -3  -6   0  113.68   15.85
  -3  -6   1  155.01   17.72
  -3  -6   2  106.11   16.61
  -3  -6   3   60.09   15.42
  -3  -6   4   34.30    9.60
  -3  -6   5   12.58    9.82
  -3  -6   6   25.87   10.06
  -3  -6   7  111.96   13.08
  -3  -6   8   37.24   11.30
  -3  -6   9   35.02   16.43
  -3  -5  -8   20.49   15.34
  -3  -5  -7   50.40   14.90
  -3  -5  -6   27.19   14.89
  -3  -5  -5   61.21   13.86
  -3  -5  -4   87.37   15.71
  -3  -5  -3   73.20   13.37
  -3  -5  -2   73.20   14.17
  -3  -5  -1   23.17   11.65
  -3  -5   0   69.79   13.80
  -3  -5   1   59.58   13.43
  -3  -5   2   39.20   12.19
  -3  -5   3   28.17    8.32
  -3  -5   4   36.18    9.34
  -3  -5   5   28.60    8.34
  -3  -5   6   28.77    9.74
  -3  -5   7  112.12   11.00
  -3  -5   8   10.90   10.30
  -3  -5   9    9.39    9.81
  -3  -5  10    3.15   14.60
  -3  -5  11    0.28   15.30
  -3  -4  -9  106.51   19.35
  -3  -4  -8   73.14   10.38
  -3  -4  -7   92.80   13.87
  -3  -4  -6   45.84    8.18
  -3  -4  -5   56.57    8.08
  -3  -4  -4   77.90    7.95
  -3  -4  -3   52.41    5.91
  -3  -4  -2   70.42    3.42
  -3  -4  -1  104.70   13.91
  -3  -4   0  144.37   13.08
  -3  -4   1  191.40   14.66
  -3  -4   2  263.68   16.61
  -3  -4   3   99.90    8.80
  -3  -4   4   36.63    7.81
  -3  -4   5   20.46    7.71
  -3  -4   6   19.92    7.49
  -3  -4   7  196.13   12.49
  -3  -4   8   47.01    8.96
  -3  -4   9   68.25   10.53
  -3  -4  10   25.06   10.02
  -3  -4  11   17.04   14.20
  -3  -4  12   59.11   18.14
  -3  -3 -12    9.81   16.66
  -3  -3 -11   64.82   17.22
  -3  -3 -10   42.26   11.22
  -3  -3  -9  112.44   11.38
  -3  -3  -8   80.70   10.45
  -3  -3  -7  142.22   10.23
  -3  -3  -6  116.49    9.82
  -3  -3  -5  187.57    9.29
  -3  -3  -4  211.80   19.26
  -3  -3  -3  191.95    5.15
  -3  -3  -2  169.22    5.08
  -3  -3  -1  161.64   11.66
  -3  -3   0  202.81   15.26
  -3  -3   1  259.75   10.22
  -3  -3   2  401.07    8.62
  -3  -3   3  212.60    7.24
  -3  -3   4  126.23    5.45
  -3  -3   5   88.89    5.60
  -3  -3   6   44.76    5.34
  -3  -3   7  374.22    9.55
  -3  -3   8   68.49   10.67
  -3  -3   9   56.02    6.65
  -3  -3  10   15.99   12.03
  -3  -3  11   16.99    9.53
  -3  -3  12   86.20   16.02
  -3  -2 -12    9.64   16.34
  -3  -2 -11   36.57   11.85
  -3  -2 -10   15.47   10.10
  -3  -2  -9   68.79   10.51
  -3  -2  -8   42.76    9.25
  -3  -2  -7   65.24    9.42
  -3  -2  -6   76.20    8.95
  -3  -2  -5  119.61    6.85
  -3  -2  -4  138.81    8.17
  -3  -2  -3  105.30    6.02
  -3  -2  -2  102.51    6.48
  -3  -2  -1  100.50   11.99
  -3  -2   0   98.14    5.76
  -3  -2   1   92.18    6.20
  -3  -2   2  335.88    8.69
  -3  -2   3   94.45    4.79
  -3  -2   4   33.40    4.45
  -3  -2   5   21.29    4.31
  -3  -2   6    8.94    4.61
  -3  -2   7  306.27   10.89
  -3  -2   8   27.89    6.44
  -3  -2   9   33.48    6.29
  -3  -2  10   10.71    8.03
  -3  -2  11   14.90    8.44
  -3  -2  12   36.88   15.90
  -3  -2  13    6.92   15.01
  -3  -1 -12   11.54   17.51
  -3  -1 -11   51.05   16.10
  -3  -1 -10   37.34    9.73
  -3  -1  -9   86.05   14.86
  -3  -1  -8   99.38   10.08
  -3  -1  -7  137.54    9.37
  -3  -1  -6   89.85    8.50
  -3  -1  -5  103.50    8.81
  -3  -1  -4  116.87    8.59
  -3  -1  -3  127.57   10.54
  -3  -1  -2  124.15   11.03
  -3  -1  -1  155.56    6.44
  -3  -1   0  203.81    7.91
  -3  -1   1  338.00   15.27
  -3  -1   2  895.40   33.66
  -3  -1   3  209.69    7.82
  -3  -1   4   44.62    4.05
  -3  -1   5   27.28    4.96
  -3  -1   6    6.14    4.46
  -3  -1   7  421.42   10.77
  -3  -1   8   75.42    7.78
  -3  -1   9   82.07   15.07
  -3  -1  10   73.14   14.66
  -3  -1  11   63.75   15.93
  -3  -1  12   59.46   16.77
  -3  -1  13   11.84   16.22
  -3   1 -11   16.01    9.96
  -3   1 -10   37.10   13.67
  -3   1  -9   94.53   14.42
  -3   1  -8   94.27   13.03
  -3   1  -7   65.03   10.52
  -3   1  -6   73.12    9.82
  -3   1  -5   81.94   16.12
  -3   1  -4  226.05    8.75
  -3   1  -3  132.53    8.99
  -3   1  -2  154.21    9.81
  -3   1  -1  118.03    5.66
  -3   1   0  281.88    8.04
  -3   1   1  311.23    9.09
  -3   1   2  930.79   23.95
  -3   1   3  177.53    8.86
  -3   1   4   34.92    4.05
  -3   1   5   32.16   10.10
  -3   1   6   14.12    3.04
  -3   1   7  314.20   30.98
  -3   1   8   72.99    5.64
  -3   1   9   80.98   12.58
  -3   1  10   53.66   11.18
  -3   1  11   58.53   14.61
  -3   1  12   29.80   12.11
  -3   2 -11    0.13   14.02
  -3   2 -10    2.26   12.09
  -3   2  -9   30.46   12.75
  -3   2  -8   53.18   11.67
  -3   2  -7   49.95   11.74
  -3   2  -6   53.01   10.21
  -3   2  -5   63.47    4.83
  -3   2  -4  246.85    8.85
  -3   2  -3   88.84    5.81
  -3   2  -2   92.24    4.62
  -3   2  -1   63.41    4.36
  -3   2   0   93.18    4.30
  -3   2   1  112.25    2.79
  -3   2   2  528.58    7.99
  -3   2   3  105.89    4.52
  -3   2   4   46.74    4.82
  -3   2   5   75.06   10.53
  -3   2   6   25.37    9.58
  -3   2   7  188.79    4.93
  -3   2   8   33.17   12.31
  -3   2   9   20.26   11.26
  -3   2  10   46.13   14.14
  -3   2  11   40.62   14.04
  -3   2  12   20.30   15.53
  -3   3 -11   30.35   14.54
  -3   3 -10   36.82   13.06
  -3   3  -9   67.66   13.52
  -3   3  -8  108.41   13.73
  -3   3  -7   66.93   11.65
  -3   3  -6   58.90    9.75
  -3   3  -5  145.57    8.50
  -3   3  -4  418.31    8.98
  -3   3  -3  184.76    6.36
  -3   3  -2  218.89    6.08
  -3   3  -1  104.57    4.69
  -3   3   0  237.94    9.12
  -3   3   1  235.72   15.92
  -3   3   2  557.40   13.34
  -3   3   3  195.37    8.66
  -3   3   4  150.00    8.12
  -3   3   5  128.31    5.87
  -3   3   6  103.17    9.45
  -3   3   7  220.97   11.66
  -3   3   8   81.92    9.34
  -3   3   9   57.43    9.92
  -3   3  10  106.51   11.38
  -3   3  11   37.90   10.46
  -3   3  12   49.04   31.58
  -3   3  13   40.88   17.16
  -3   4 -11    9.82   13.56
  -3   4 -10   27.68   13.00
  -3   4  -9   92.21   14.05
  -3   4  -8   55.02   11.85
  -3   4  -7   46.90   10.08
  -3   4  -6   40.75    9.28
  -3   4  -5  102.20    6.96
  -3   4  -4  195.83    7.43
  -3   4  -3   59.75    4.97
  -3   4  -2  116.34    8.27
  -3   4  -1   51.59    9.52
  -3   4   0  212.92   10.45
  -3   4   1  205.25   12.92
  -3   4   2  429.30   13.12
  -3   4   3  160.29    4.80
  -3   4   4   97.26    8.69
  -3   4   5   40.81    8.35
  -3   4   6   51.72    8.19
  -3   4   7  119.38   10.46
  -3   4   8  100.42   10.66
  -3   4   9   84.19   10.36
  -3   4  10  109.37   12.55
  -3   4  11   51.65   11.53
  -3   4  12   26.77   16.44
  -3   5  -7   11.72    9.21
  -3   5  -6    8.07    7.52
  -3   5  -5   41.11    6.86
  -3   5  -4  135.80   19.86
  -3   5  -3   16.38    8.16
  -3   5  -2   15.88    7.00
  -3   5  -1   17.67    7.10
  -3   5   0   31.93   10.46
  -3   5   1   22.00    6.97
  -3   5   2   95.15    8.65
  -3   5   3   40.59   14.18
  -3   5   4   61.12    8.48
  -3   5   5   21.90    7.58
  -3   5   6   35.97    8.82
  -3   5   7   31.83    8.75
  -3   5   8   19.45    9.10
  -3   5   9    6.36    9.60
  -3   5  10   27.25   11.90
  -3   5  11    0.04   15.31
  -3   6  -5   69.02   14.98
  -3   6  -4  128.87   10.51
  -3   6  -3   47.14    8.74
  -3   6  -2  109.87   13.63
  -3   6  -1   75.23    8.75
  -3   6   0  104.68    9.95
  -3   6   1  120.93    9.68
  -3   6   2  207.70   13.76
  -3   6   3  113.35   10.10
  -3   6   4  106.04    9.86
  -3   6   5   26.79   10.96
  -3   6   6   56.79    9.26
  -3   6   7   63.27   10.35
  -3   6   8   94.58   11.80
  -3   6   9   69.07   11.93
  -3   6  10   60.54   18.06
  -3   7  -5   35.54   15.56
  -3   7  -4   79.28   16.58
  -3   7  -3   18.43    8.60
  -3   7  -2   44.46   13.18
  -3   7  -1   28.01    9.21
  -3   7   0   22.93    8.66
  -3   7   1   64.69    9.56
  -3   7   2  111.64   10.25
  -3   7   3   60.86    9.35
  -3   7   4   75.61   12.87
  -3   7   5   19.00    8.64
  -3   7   6   38.48   10.21
  -3   7   7   32.86   10.29
  -3   7   8   39.77   11.22
  -3   8  -3    5.50   15.54
  -3   8  -2    6.20   15.43
  -3   8  -1    6.48   14.97
  -3   8   0    6.55   14.59
  -3   8   1   11.38   14.26
  -3   8   2   12.42   14.91
  -3   8   3    4.97   15.29
  -3   8   4    5.32    9.34
  -3   8   5   14.77   12.93
  -3   8   6   15.02   13.74
  -3   8   7    8.19   14.62
  -2  -8  -5   28.05   16.32
  -2  -8  -4   21.48   16.50
  -2  -8  -3    7.31   15.27
  -2  -8  -2    1.71   14.49
  -2  -8  -1    4.24   14.87
  -2  -8   0   12.03   14.74
  -2  -8   1    5.62   14.54
  -2  -8   2   33.09   15.05
  -2  -8   3   19.14   14.70
  -2  -8   4   21.17   11.31
  -2  -8   5   30.05   16.45
  -2  -7  -7   11.44   15.01
  -2  -7  -6   44.94   16.81
  -2  -7  -5   49.30   16.75
  -2  -7  -4   78.99   15.80
  -2  -7  -3   37.63   14.53
  -2  -7  -2   13.04   13.09
  -2  -7  -1   43.49   14.33
  -2  -7   0   52.15   13.91
  -2  -7   1   40.27   13.97
  -2  -7   2  106.64   15.89
  -2  -7   3   40.49   10.81
  -2  -7   4   18.09    9.89
  -2  -7   5   33.87   10.74
  -2  -7   6    6.82   10.42
  -2  -7   7  114.99   13.62
  -2  -6  -9   52.06   17.43
  -2  -6  -8   27.59   15.57
  -2  -6  -7   21.03   13.90
  -2  -6  -6   96.12   17.34
  -2  -6  -5  103.87   15.44
  -2  -6  -4  124.81   17.13
  -2  -6  -3   69.79   13.87
  -2  -6  -2   66.43   13.82
  -2  -6  -1   62.55   13.46
  -2  -6   0  132.63   16.21
  -2  -6   1  122.80   14.58
  -2  -6   2  238.28   13.59
  -2  -6   3  117.70   12.23
  -2  -6   4   62.91   10.16
  -2  -6   5   91.89   10.62
  -2  -6   6   42.65   10.11
  -2  -6   7  164.48   12.73
  -2  -6   8   31.04   10.84
  -2  -6   9   38.33   10.99
  -2  -5 -10   16.11   11.64
  -2  -5  -9   12.26   13.05
  -2  -5  -8   21.66    9.69
  -2  -5  -7   15.06    8.42
  -2  -5  -6   38.82   17.55
  -2  -5  -5   38.28    8.77
  -2  -5  -4  128.26   14.59
  -2  -5  -3   24.87   10.95
  -2  -5  -2    8.33   10.68
  -2  -5  -1    1.96   10.50
  -2  -5   0   21.60   10.44
  -2  -5   1   12.46    6.19
  -2  -5   2  103.74    8.90
  -2  -5   3   23.69    7.52
  -2  -5   4   36.76    8.60
  -2  -5   5   63.70    8.82
  -2  -5   6   54.73    9.38
  -2  -5   7   79.26   10.33
  -2  -5   8    0.74    8.80
  -2  -5   9    5.37    9.59
  -2  -5  10    9.51   10.41
  -2  -5  11   11.58   15.35
  -2  -4 -12   39.37   17.91
  -2  -4 -11   33.47   12.75
  -2  -4 -10   65.87   16.92
  -2  -4  -9   53.65   10.50
  -2  -4  -8   25.36    9.33
  -2  -4  -7   12.41    8.16
  -2  -4  -6   77.69    7.68
  -2  -4  -5  100.88    8.13
  -2  -4  -4  253.63   10.12
  -2  -4  -3   76.49   11.70
  -2  -4  -2  107.84   12.19
  -2  -4  -1   52.88    9.62
  -2  -4   0  271.85   17.20
  -2  -4   1  186.48   12.27
  -2  -4   2  435.32    8.25
  -2  -4   3  113.69    5.75
  -2  -4   4   64.61    6.95
  -2  -4   5  105.60    4.95
  -2  -4   6   76.68    4.25
  -2  -4   7  188.84    8.10
  -2  -4   8   56.90    7.29
  -2  -4   9   58.59    7.05
  -2  -4  10   79.00   15.84
  -2  -4  11   74.37   15.93
  -2  -4  12   36.01   16.49
  -2  -3 -12   34.22   17.34
  -2  -3 -11   29.56   16.21
  -2  -3 -10   52.91   10.89
  -2  -3  -9   75.64   11.15
  -2  -3  -8   45.98    9.24
  -2  -3  -7   39.90    8.44
  -2  -3  -6  119.72   23.82
  -2  -3  -5  205.05   24.58
  -2  -3  -4  485.17   10.44
  -2  -3  -3   83.35    4.09
  -2  -3  -2   83.59    4.26
  -2  -3  -1   24.07    9.66
  -2  -3   0  264.21   11.38
  -2  -3   1  189.81   13.82
  -2  -3   2  474.15   39.57
  -2  -3   3  159.34    4.74
  -2  -3   4  197.70    6.12
  -2  -3   5  246.28    5.16
  -2  -3   6  186.94    8.17
  -2  -3   7  207.03    9.90
  -2  -3   8   53.74    7.67
  -2  -3   9   78.88    9.75
  -2  -3  10  109.66   10.26
  -2  -3  11   89.05   10.93
  -2  -3  12   80.65   14.66
  -2  -3  13   57.21   12.19
  -2  -2 -12   23.64   11.52
  -2  -2 -11   15.22   11.45
  -2  -2 -10   42.33   10.25
  -2  -2  -9   82.55   11.12
  -2  -2  -8   43.43   13.62
  -2  -2  -7   27.85   11.04
  -2  -2  -6   19.73    7.04
  -2  -2  -5  105.77    7.67
  -2  -2  -4  387.70    9.66
  -2  -2  -3   10.59    3.58
  -2  -2  -2   36.35    5.67
  -2  -2  -1    6.66    2.91
  -2  -2   0  172.83    7.57
  -2  -2   1   74.22    4.02
  -2  -2   2  306.82    5.96
  -2  -2   3   39.03    3.96
  -2  -2   4   81.72    3.91
  -2  -2   5  134.10    8.62
  -2  -2   6  127.46    6.93
  -2  -2   7   95.51    7.69
  -2  -2   8   38.74    7.81
  -2  -2   9   44.10   10.04
  -2  -2  10   55.95    9.34
  -2  -2  11   52.17    9.90
  -2  -2  12   48.21   10.61
  -2  -2  13   20.72   11.26
  -2  -1 -12   56.34   11.61
  -2  -1 -11   22.86    9.23
  -2  -1 -10   54.49   10.07
  -2  -1  -9  168.62   20.46
  -2  -1  -8   11.88    7.54
  -2  -1  -7   19.03   10.11
  -2  -1  -6   46.06    4.47
  -2  -1  -5  234.81   13.94
  -2  -1  -4  640.92   31.86
  -2  -1  -3   48.27    4.84
  -2  -1  -2  105.90    4.62
  -2  -1  -1  110.87    8.07
  -2  -1   0  530.70    6.51
  -2  -1   1  424.10    7.34
  -2  -1   2  639.50   12.36
  -2  -1   3  180.19    4.49
  -2  -1   4  211.83   13.54
  -2  -1   5  174.77    6.93
  -2  -1   6  139.80   15.14
  -2  -1   7  142.29   12.53
  -2  -1   8   94.98   11.10
  -2  -1   9  102.97   13.72
  -2  -1  10  117.22   15.48
  -2  -1  11  104.19   14.10
  -2  -1  12   95.94   16.89
  -2  -1  13   39.65   15.35
  -2   1 -12   44.02    9.89
  -2   1 -11   38.30   12.86
  -2   1 -10   66.62   11.39
  -2   1  -9  238.88   13.27
  -2   1  -8   14.01    7.09
  -2   1  -7   11.37    5.88
  -2   1  -6   52.82    3.05
  -2   1  -5  306.50   11.25
  -2   1  -4  621.97   11.43
  -2   1  -3   38.63    2.76
  -2   1  -2  146.19    5.64
  -2   1  -1  148.81    6.38
  -2   1   0  328.10    8.38
  -2   1   1  328.02    8.99
  -2   1   2  361.63    6.02
  -2   1   3  206.64   18.76
  -2   1   4  239.19   35.17
  -2   1   6  129.94   13.88
  -2   1   7   86.97   10.34
  -2   1   8  100.12   13.25
  -2   1   9  110.25   14.02
  -2   1  10   36.89   10.20
  -2   1  11  102.96   15.32
  -2   1  12   85.77   15.92
  -2   1  13   61.50   16.80
  -2   2 -12    0.76   10.27
  -2   2 -11   16.37   10.41
  -2   2 -10   31.88   14.81
  -2   2  -9  140.22   10.62
  -2   2  -8   26.92    7.98
  -2   2  -7    9.94    8.63
  -2   2  -6   14.53    8.49
  -2   2  -5  104.57   11.28
  -2   2  -4  184.58    5.70
  -2   2  -3   41.12    3.46
  -2   2  -2   49.38    3.71
  -2   2  -1   20.97    2.91
  -2   2   0   33.79    5.28
  -2   2   1   77.75    6.33
  -2   2   2  150.04    3.13
  -2   2   3   99.55    5.20
  -2   2   4   94.48    2.22
  -2   2   5  127.08   12.15
  -2   2   6  143.60   12.00
  -2   2   7  113.91   13.80
  -2   2   8   36.63   11.65
  -2   2   9   44.60   13.75
  -2   2  10   27.28   13.57
  -2   2  11   75.25   16.99
  -2   2  12   59.37   16.43
  -2   3 -12   19.52   14.88
  -2   3 -11   51.35   14.85
  -2   3 -10   94.84   14.22
  -2   3  -9  235.86   17.80
  -2   3  -8   12.69    9.81
  -2   3  -7   54.58   10.99
  -2   3  -6   60.26    9.97
  -2   3  -5  207.26   10.94
  -2   3  -4  303.33   10.56
  -2   3  -3  143.67    5.80
  -2   3  -2  157.51    5.29
  -2   3  -1  128.02    6.64
  -2   3   0   81.42    6.61
  -2   3   1  130.32   10.45
  -2   3   2  188.67    4.87
  -2   3   3  171.94    9.89
  -2   3   4  177.45    7.51
  -2   3   5  271.18    6.20
  -2   3   6  226.89   10.82
  -2   3   7  194.83   13.30
  -2   3   8   92.00    9.83
  -2   3   9   82.09    9.36
  -2   3  10   37.64    9.66
  -2   3  11  111.71   11.82
  -2   3  12   65.18   11.34
  -2   4 -11   37.20   15.04
  -2   4 -10   50.93   13.76
  -2   4  -9  112.46   14.83
  -2   4  -8   12.21   10.20
  -2   4  -7   29.87   10.14
  -2   4  -6   43.32    8.93
  -2   4  -5  188.32    9.67
  -2   4  -4  252.63    8.16
  -2   4  -3   90.40    5.75
  -2   4  -2  101.76    7.13
  -2   4  -1   89.89    7.32
  -2   4   0  100.33    6.43
  -2   4   1  160.51    9.42
  -2   4   2  163.65    5.49
  -2   4   3  165.18    8.67
  -2   4   4  161.15    5.54
  -2   4   5  130.12    8.38
  -2   4   6   99.88    8.35
  -2   4   7   92.81    9.40
  -2   4   8   57.10   10.87
  -2   4   9   65.40   10.24
  -2   4  10   25.18    9.54
  -2   4  11   96.52   12.17
  -2   4  12   58.99   20.19
  -2   5 -11    6.33   13.90
  -2   5 -10   10.06   12.87
  -2   5  -9   84.85   14.32
  -2   5  -8   10.58   10.10
  -2   5  -7   18.30   10.30
  -2   5  -6   16.99    8.83
  -2   5  -5   14.88    5.87
  -2   5  -4   30.77   11.25
  -2   5  -3   61.51    7.73
  -2   5  -2    9.29    6.07
  -2   5  -1   29.51    6.77
  -2   5   0   11.24    6.78
  -2   5   1   29.67    3.83
  -2   5   2   31.92    4.14
  -2   5   3   18.91    6.33
  -2   5   4    3.88    6.43
  -2   5   5  175.35   10.40
  -2   5   6   59.89    8.18
  -2   5   7   62.87   10.80
  -2   5   8    5.89    8.44
  -2   5   9   26.77    9.07
  -2   5  10    2.58    9.55
  -2   5  11   34.43   10.82
  -2   6  -9   83.53   14.55
  -2   6  -4  152.88   16.14
  -2   6  -3   99.43    8.90
  -2   6  -2   73.19    7.66
  -2   6  -1   67.82   22.58
  -2   6   0   94.27   18.24
  -2   6   1   82.79    8.72
  -2   6   2   75.54   13.31
  -2   6   3   74.22    8.10
  -2   6   4   82.54    8.82
  -2   6   5  107.34   10.20
  -2   6   6   74.53    9.63
  -2   6   7   78.68   10.29
  -2   6   8   44.14    9.49
  -2   6   9   41.57   10.67
  -2   6  10   24.82   10.29
  -2   7  -4   31.34   15.68
  -2   7  -3   36.29   13.70
  -2   7  -2   16.36   13.61
  -2   7  -1   40.42   10.25
  -2   7   0   51.65    8.07
  -2   7   1   45.27    7.52
  -2   7   2   38.24    7.94
  -2   7   3   33.53    7.88
  -2   7   4   21.18    7.61
  -2   7   5   62.31    9.57
  -2   7   6   23.06   13.23
  -2   7   7   30.08    9.25
  -2   7   8   13.11   10.01
  -2   7   9   23.88   10.42
  -2   8  -4    3.26   14.39
  -2   8  -3    0.80   14.43
  -2   8  -2    0.42   14.03
  -2   8  -1   33.43   16.27
  -2   8   0   40.79   15.54
  -2   8   1   12.21   14.50
  -2   8   2    2.83   14.96
  -2   8   3    7.02   13.89
  -2   8   4    0.18   15.83
  -2   8   5   30.52   15.58
  -2   8   6   16.64   15.60
  -2   8   7   11.37   15.07
  -1  -9  -4   72.48   19.21
  -1  -9  -3   13.47   15.35
  -1  -9  -2   21.36   15.92
  -1  -9  -1   13.00   15.19
  -1  -9   0   15.47   15.37
  -1  -9   1   13.80   15.65
  -1  -9   2   35.07   16.24
  -1  -9   3   16.86   14.71
  -1  -9   4   38.77   17.16
  -1  -8  -7    0.48   15.20
  -1  -8  -6    0.88   10.85
  -1  -8  -5   16.87   14.63
  -1  -8  -4   22.10   14.24
  -1  -8  -3    7.06   13.79
  -1  -8  -2   10.78   13.21
  -1  -8  -1    8.03   13.33
  -1  -8   0    6.46   13.35
  -1  -8   1   13.16   13.16
  -1  -8   2   13.76    9.58
  -1  -8   3    1.03    9.80
  -1  -8   4   12.86   11.62
  -1  -8   5   17.78   10.83
  -1  -8   6   36.99   16.45
  -1  -8   7    6.10   15.74
  -1  -7  -9   50.68   16.63
  -1  -7  -8    1.08   14.43
  -1  -7  -7   12.61   13.98
  -1  -7  -6   30.42   10.10
  -1  -7  -5   62.15   15.00
  -1  -7  -4   69.50   14.95
  -1  -7  -3    9.18   12.66
  -1  -7  -2   34.49   12.76
  -1  -7  -1   24.28   12.80
  -1  -7   0   55.45   12.74
  -1  -7   1   20.98    8.60
  -1  -7   2   36.65    9.22
  -1  -7   3   12.79    9.03
  -1  -7   4   26.81    9.59
  -1  -7   5   56.71   10.36
  -1  -7   6   58.98   10.74
  -1  -7   7   14.24   10.17
  -1  -7   8   12.50   14.13
  -1  -6 -10   69.25   10.24
  -1  -6  -9   52.45   12.10
  -1  -6  -8    1.26   13.23
  -1  -6  -7   19.65   12.90
  -1  -6  -6   77.33   10.27
  -1  -6  -5  166.95   17.31
  -1  -6  -4  209.02   15.73
  -1  -6  -3   27.03   11.98
  -1  -6  -2   61.44   12.36
  -1  -6  -1   47.09   11.46
  -1  -6   0   86.98   12.87
  -1  -6   1   60.25    8.60
  -1  -6   2   77.17    9.20
  -1  -6   3   45.59   12.05
  -1  -6   4   94.17    9.40
  -1  -6   5  110.28   11.03
  -1  -6   6   82.29   10.08
  -1  -6   7   27.09    9.46
  -1  -6   8   22.07    9.77
  -1  -6   9   29.51   11.05
  -1  -6  10   22.46   14.71
  -1  -5 -11    9.72   11.93
  -1  -5 -10   60.48   11.98
  -1  -5  -9  107.59   12.00
  -1  -5  -8    0.40    8.57
  -1  -5  -7   16.88   12.13
  -1  -5  -6   15.92   11.10
  -1  -5  -5   28.70   11.04
  -1  -5  -4   34.61   11.49
  -1  -5  -3   31.19    6.56
  -1  -5  -2   11.58    4.42
  -1  -5  -1   36.44   10.13
  -1  -5   0   81.30    7.81
  -1  -5   1   31.93    7.12
  -1  -5   2   15.56    7.04
  -1  -5   3   14.93    6.74
  -1  -5   4   21.79    3.04
  -1  -5   5  106.50    6.08
  -1  -5   6   90.82   11.63
  -1  -5   7   21.86    8.41
  -1  -5   8   13.00    8.92
  -1  -5   9   20.34    9.24
  -1  -5  10    7.25    9.79
  -1  -5  11   34.02   17.04
  -1  -4 -12   69.35   20.25
  -1  -4 -11   59.03   21.21
  -1  -4 -10   83.62   12.96
  -1  -4  -9  126.43   11.44
  -1  -4  -8    0.96    8.52
  -1  -4  -7   49.67   12.30
  -1  -4  -6  114.21   12.62
  -1  -4  -5  290.05   18.36
  -1  -4  -4  407.84   16.12
  -1  -4  -3   47.36    6.20
  -1  -4  -2   98.98    6.83
  -1  -4  -1   57.57    4.20
  -1  -4   0   71.33    6.65
  -1  -4   1   52.17    6.90
  -1  -4   2   56.35    6.30
  -1  -4   3   70.99   10.51
  -1  -4   4  178.96    3.95
  -1  -4   5  158.54    5.21
  -1  -4   6  102.92    6.38
  -1  -4   7   55.42    7.62
  -1  -4   8   20.13    7.51
  -1  -4   9   32.65    8.90
  -1  -4  10    9.51    8.81
  -1  -4  11   52.77   10.37
  -1  -4  12   39.23   11.89
  -1  -3 -12   21.56   13.11
  -1  -3 -11  101.75   12.88
  -1  -3 -10  182.81   13.10
  -1  -3  -9  300.71   14.65
  -1  -3  -8    8.94    8.40
  -1  -3  -7  131.76   10.02
  -1  -3  -6  173.85   10.30
  -1  -3  -5  294.68   13.63
  -1  -3  -4  285.95   15.81
  -1  -3  -3  109.56    5.90
  -1  -3  -2  195.48    5.52
  -1  -3  -1  290.72    5.25
  -1  -3   0  360.66   20.96
  -1  -3   1  242.82    8.10
  -1  -3   2  108.92    5.19
  -1  -3   3   88.82    2.80
  -1  -3   4  116.49    8.00
  -1  -3   5  321.28   14.07
  -1  -3   6  211.81   11.60
  -1  -3   7  146.39    8.99
  -1  -3   8   56.65   12.29
  -1  -3   9   94.50   12.59
  -1  -3  10   33.26   12.22
  -1  -3  11  124.75   17.09
  -1  -3  12   64.76   16.11
  -1  -3  13   49.49   17.13
  -1  -2 -12   16.88   11.24
  -1  -2 -11   75.20   11.79
  -1  -2 -10  146.31   11.89
  -1  -2  -9  237.68    9.80
  -1  -2  -8   18.29    8.16
  -1  -2  -7   63.30    8.42
  -1  -2  -6   79.04    7.14
  -1  -2  -5  164.85   14.82
  -1  -2  -4  149.86    5.06
  -1  -2  -3   31.80    3.01
  -1  -2  -2  125.25    3.89
  -1  -2  -1  170.15    9.15
  -1  -2   0  159.23    4.20
  -1  -2   1   73.23    3.61
  -1  -2   2   15.89    2.54
  -1  -2   3   30.90    3.93
  -1  -2   4   34.50    3.62
  -1  -2   5  257.98    6.60
  -1  -2   6  137.91    7.57
  -1  -2   7  115.59    9.98
  -1  -2   8   16.76   10.41
  -1  -2   9   45.46   12.94
  -1  -2  10   11.04   12.22
  -1  -2  11   57.74   14.63
  -1  -2  12   35.55   14.59
  -1  -2  13   42.75   17.54
  -1  -1 -12   53.55   11.64
  -1  -1 -11  197.55   13.59
  -1  -1 -10   92.89   12.00
  -1  -1  -9  206.36   18.39
  -1  -1  -8   77.20   16.87
  -1  -1  -7   58.43    4.75
  -1  -1  -6  185.13    7.81
  -1  -1  -5  581.63   10.04
  -1  -1  -4  613.96   20.34
  -1  -1  -3  228.61    9.99
  -1  -1  -2  362.60   11.76
  -1  -1  -1  163.86    2.61
  -1  -1   0  218.11    7.39
  -1  -1   1   72.63    2.89
  -1  -1   2   85.79    5.62
  -1  -1   3  397.43   14.94
  -1  -1   4  407.08   22.29
  -1  -1   5  401.30   12.18
  -1  -1   6  158.97    5.97
  -1  -1   7  130.37   10.26
  -1  -1   8    2.84   10.85
  -1  -1   9   71.89   13.24
  -1  -1  10   28.65   12.91
  -1  -1  11   69.76   15.55
  -1  -1  12   34.45   15.28
  -1  -1  13   40.56   13.78
  -1   1 -12   46.37    9.96
  -1   1 -11  127.01   10.55
  -1   1 -10   95.23   10.60
  -1   1  -9  120.17    8.88
  -1   1  -8   95.63    8.41
  -1   1  -7   72.60    7.38
  -1   1  -6  146.39   28.23
  -1   1  -5  349.77    9.09
  -1   1  -4  474.85   10.73
  -1   1  -3  421.53    6.01
  -1   1  -2  434.13    5.54
  -1   1  -1  335.11    3.04
  -1   1   0  780.76   12.14
  -1   1   1   23.38    4.11
  -1   1   2   98.97    7.67
  -1   1   3  451.17   10.57
  -1   1   4  313.05   10.65
  -1   1   5  604.95   19.34
  -1   1   6  197.22   12.91
  -1   1   7  114.42   12.26
  -1   1   8    6.73   10.16
  -1   1   9   69.69   13.82
  -1   1  10   22.06   12.16
  -1   1  11   31.57   13.36
  -1   1  12   10.50    7.02
  -1   1  13   53.49   18.06
  -1   2 -12   29.16   10.88
  -1   2 -11   93.84   11.78
  -1   2 -10   98.05   10.25
  -1   2  -9  134.05   11.57
  -1   2  -8   87.70   10.02
  -1   2  -7   51.62    7.91
  -1   2  -6   75.38    7.17
  -1   2  -5  108.67    7.21
  -1   2  -4  178.69   11.26
  -1   2  -3  152.52    6.47
  -1   2  -2  135.65    4.29
  -1   2  -1  262.72    6.91
  -1   2   0 1072.90   15.67
  -1   2   1  208.11    4.04
  -1   2   2  122.76    7.04
  -1   2   3  123.98    5.27
  -1   2   4   24.50    3.68
  -1   2   5  392.22   13.54
  -1   2   6  100.41   11.98
  -1   2   7   60.37   11.21
  -1   2   8   20.24   11.61
  -1   2   9   53.33   12.60
  -1   2  10   26.06   13.86
  -1   2  11   47.47   14.81
  -1   2  12   15.95    9.49
  -1   3 -12   45.26   11.78
  -1   3 -11  105.37   12.52
  -1   3 -10  138.19   13.52
  -1   3  -9  201.87   11.76
  -1   3  -8  197.42   14.78
  -1   3  -7  131.06   12.51
  -1   3  -6  136.42   11.63
  -1   3  -5  232.25   12.97
  -1   3  -4  281.60   11.30
  -1   3  -3  258.88    7.25
  -1   3  -2  184.91    5.78
  -1   3  -1  309.28    5.88
  -1   3   0 1688.56   14.72
  -1   3   1  486.48   26.74
  -1   3   2  220.99    5.69
  -1   3   3   28.62    3.61
  -1   3   4   71.52    4.35
  -1   3   5  578.22   13.60
  -1   3   6  222.51    9.59
  -1   3   7  139.67    9.39
  -1   3   8   80.68    8.17
  -1   3   9  107.25   10.34
  -1   3  10   59.45    8.95
  -1   3  11   68.02   10.60
  -1   3  12   42.76   18.20
  -1   4 -12   75.68   17.17
  -1   4 -11   68.06   15.75
  -1   4 -10   62.65   13.42
  -1   4  -9   44.39   13.42
  -1   4  -8   42.66   12.01
  -1   4  -7   27.22   10.47
  -1   4  -6   86.53   11.06
  -1   4  -5  194.53    7.78
  -1   4  -4  317.82    8.58
  -1   4  -3  256.99    7.02
  -1   4  -2  100.22    5.31
  -1   4  -1   91.76    6.34
  -1   4   0  518.25    8.81
  -1   4   1   23.48    3.77
  -1   4   2   27.79    4.47
  -1   4   3   66.46    7.18
  -1   4   4  108.20    7.34
  -1   4   5  380.56   19.43
  -1   4   6   99.70    8.34
  -1   4   7   27.56    7.12
  -1   4   8   31.09    8.14
  -1   4   9   14.62    7.77
  -1   4  10    6.72    8.64
  -1   4  11    1.13    9.41
  -1   4  12    5.86   16.32
  -1   5 -11   23.35   15.02
  -1   5 -10   59.20   15.23
  -1   5  -9  106.99   14.45
  -1   5  -8   88.91   13.17
  -1   5  -7   27.70   10.65
  -1   5  -6   23.04    8.94
  -1   5  -5   68.99    9.61
  -1   5  -4   41.66    6.61
  -1   5  -3   24.90    6.69
  -1   5  -2   28.83    4.89
  -1   5  -1   79.62    5.30
  -1   5   0  618.39    9.56
  -1   5   1  107.27    6.96
  -1   5   2   43.99    4.84
  -1   5   3    0.82    5.26
  -1   5   4    5.59    5.73
  -1   5   5   93.06    8.12
  -1   5   6   35.42    7.31
  -1   5   7   31.55   11.01
  -1   5   8   69.82    8.46
  -1   5   9   30.98   10.09
  -1   5  10   23.35    8.61
  -1   5  11   28.20   16.75
  -1   6  -5  206.40   14.48
  -1   6  -4  144.86   10.58
  -1   6  -3  100.63   11.34
  -1   6  -2   58.68    5.54
  -1   6  -1   42.12    5.45
  -1   6   0  336.05   10.60
  -1   6   1   39.70    5.06
  -1   6   2   36.49    6.03
  -1   6   3   32.01   10.94
  -1   6   4   99.27    8.34
  -1   6   5  200.09   10.45
  -1   6   6   84.64   15.16
  -1   6   7   30.18    8.09
  -1   6   8   57.56   10.14
  -1   6   9   12.44    8.93
  -1   6  10    9.77   14.33
  -1   7  -4   42.24   12.31
  -1   7  -3   47.72    9.58
  -1   7  -2   26.60    8.83
  -1   7  -1   34.02    9.62
  -1   7   0  211.56   11.48
  -1   7   1   41.79   10.25
  -1   7   2   31.58    9.44
  -1   7   3   21.98    7.05
  -1   7   4   27.13    7.69
  -1   7   5   58.31    8.95
  -1   7   6   40.76    8.48
  -1   7   7   21.20    8.89
  -1   7   8   55.18    9.99
  -1   7   9    1.24   14.06
  -1   8  -3    6.83   14.96
  -1   8  -2    7.31    9.86
  -1   8  -1   19.96   14.64
  -1   8   0  138.65   20.06
  -1   8   1   38.73   14.82
  -1   8   2   16.34   14.60
  -1   8   3    5.66   14.03
  -1   8   4    5.41   13.92
  -1   8   5    9.55   14.24
  -1   8   6   19.99   15.40
  -1   8   7   12.46   15.45
   0  -9   2   16.26   14.98
   0  -8  -5    8.38   13.18
   0  -8  -4   23.19   13.05
   0  -8  -3   14.04   11.92
   0  -8  -2   15.45   12.15
   0  -8  -1   68.25   14.40
   0  -8   0   79.27   14.31
   0  -8   1   54.11   19.39
   0  -8   2    0.03    8.78
   0  -8   3    0.59    9.22
   0  -8   4    2.60    9.65
   0  -8   5   28.55   10.18
   0  -8   6   17.97   13.98
   0  -8   7    9.17   14.11
   0  -8   8    4.62   16.25
   0  -7 -10   42.76   16.27
   0  -7  -9   67.02   11.81
   0  -7  -8   44.22   11.06
   0  -7  -7   51.15   13.13
   0  -7  -6   64.65   13.71
   0  -7  -5   40.77   13.25
   0  -7  -4   44.71   11.90
   0  -7  -3   53.28   13.40
   0  -7  -2   41.90   11.49
   0  -7  -1   82.80   12.41
   0  -7   0  102.03    9.72
   0  -7   1   57.05    9.40
   0  -7   2    9.39    8.02
   0  -7   3   21.00    8.46
   0  -7   4   25.48    8.50
   0  -7   5   95.13   11.06
   0  -7   6   46.42    9.39
   0  -7   7   29.06   13.53
   0  -7   8   10.24   10.03
   0  -7   9   32.69   14.61
   0  -6 -11   72.15   18.76
   0  -6 -10   35.33   10.55
   0  -6  -9   45.82   19.75
   0  -6  -8   72.54   10.87
   0  -6  -7   54.99   13.32
   0  -6  -6  118.45   13.68
   0  -6  -5  154.37   14.90
   0  -6  -4  115.42   14.25
   0  -6  -3  111.38   11.79
   0  -6  -2   78.18   11.09
   0  -6  -1  115.43   12.58
   0  -6   0  219.29   16.60
   0  -6   1   83.67    8.04
   0  -6   2   21.14    7.54
   0  -6   3   42.35    7.70
   0  -6   4   63.39    8.72
   0  -6   5  195.57   11.00
   0  -6   6   56.27   12.21
   0  -6   7   37.01    9.05
   0  -6   8    4.70    9.26
   0  -6   9   19.94   10.03
   0  -6  10   11.51   13.05
   0  -5 -11   81.91   23.55
   0  -5 -10   62.71   11.19
   0  -5  -9  108.07   11.04
   0  -5  -8  182.85   11.44
   0  -5  -7   66.79   12.71
   0  -5  -6   49.19   10.66
   0  -5  -5   37.34    7.42
   0  -5  -4   17.90    8.91
   0  -5  -3   55.34   10.65
   0  -5  -2   95.40    6.33
   0  -5  -1  214.97    6.40
   0  -5   0  504.20   22.02
   0  -5   1  185.96   17.57
   0  -5   2   26.66    2.47
   0  -5   3    1.67    2.72
   0  -5   4    2.57    3.94
   0  -5   5  149.26    7.25
   0  -5   6   31.27    5.53
   0  -5   7   49.10    7.19
   0  -5   8   24.74    8.11
   0  -5   9   61.91   10.82
   0  -5  10   24.69   15.40
   0  -5  11   18.10   17.24
   0  -4 -12   35.06   13.40
   0  -4 -11   52.36   11.64
   0  -4 -10   26.99    7.66
   0  -4  -9   37.99    8.58
   0  -4  -8  115.97   10.65
   0  -4  -7   70.76   11.70
   0  -4  -6  134.28   12.71
   0  -4  -5  209.52   12.74
   0  -4  -4  163.31   13.27
   0  -4  -3  125.16    6.37
   0  -4  -2   76.77    5.36
   0  -4  -1   53.35    4.69
   0  -4   0  399.45    7.81
   0  -4   1   31.91    5.28
   0  -4   2   23.48    2.81
   0  -4   3   38.54    3.00
   0  -4   4  106.43    4.33
   0  -4   5  455.57   20.67
   0  -4   6   73.42    8.03
   0  -4   7   25.64    9.02
   0  -4   8    5.29   10.31
   0  -4   9   12.93   10.73
   0  -4  10   21.02   13.14
   0  -4  11   22.51   14.18
   0  -4  12   14.65   14.57
   0  -4  13   42.69   18.29
   0  -3 -12   67.77   12.70
   0  -3 -11  123.53   12.87
   0  -3 -10  130.01    8.54
   0  -3  -9  163.35   10.27
   0  -3  -8  372.56   11.95
   0  -3  -7  197.73   15.03
   0  -3  -6  286.09   14.97
   0  -3  -5  344.00   15.73
   0  -3  -4  273.23   11.59
   0  -3  -3  258.14   10.55
   0  -3  -2  372.46    6.66
   0  -3  -1  733.37   20.08
   0  -3   0 3250.84   15.81
   0  -3   1  735.42   42.58
   0  -3   2  262.25    4.28
   0  -3   3   39.32    2.78
   0  -3   4  103.28    4.24
   0  -3   5  629.55   33.06
   0  -3   6  155.10    5.74
   0  -3   7  155.23   13.70
   0  -3   8  119.85   12.44
   0  -3   9  165.56   18.12
   0  -3  10  102.08   13.87
   0  -3  11   72.49   17.02
   0  -3  12    4.89   14.22
   0  -3  13   39.01   16.87
   0  -2 -13   19.83   16.47
   0  -2 -12   16.32   10.71
   0  -2 -11   46.04   10.74
   0  -2 -10   60.81   10.64
   0  -2  -9   85.01    6.20
   0  -2  -8  297.66   38.31
   0  -2  -7   85.28    6.70
   0  -2  -6   90.13   11.01
   0  -2  -5  220.00   11.98
   0  -2  -4  122.25    8.43
   0  -2  -3   53.40    3.67
   0  -2  -2  139.60    4.50
   0  -2  -1  190.58    4.22
   0  -2   0 3273.54   86.77
   0  -2   1  186.40    2.12
   0  -2   2   69.49    3.28
   0  -2   3    0.26    2.51
   0  -2   4   57.17    4.72
   0  -2   5  545.10    7.63
   0  -2   6   73.45    3.18
   0  -2   7   53.03    9.89
   0  -2   8   72.61   13.31
   0  -2   9   71.96   12.24
   0  -2  10   68.05   15.16
   0  -2  11   34.15   15.13
   0  -2  12    1.40   14.81
   0  -2  13   41.35   18.07
   0  -1 -13   71.35   23.60
   0  -1 -12   37.21   11.13
   0  -1 -11   36.21    9.34
   0  -1 -10   40.21    9.59
   0  -1  -9   28.50    8.46
   0  -1  -8   80.90    4.01
   0  -1  -7   36.81    3.78
   0  -1  -6  133.81    4.53
   0  -1  -5  681.40   21.19
   0  -1  -4  462.49    7.56
   0  -1  -3  130.57    5.05
   0  -1  -2   43.09    3.83
   0  -1  -1  190.42    2.65
   0  -1   0 2534.11   29.25
   0  -1   1   35.40    4.22
   0  -1   2    9.16    2.87
   0  -1   3   12.27    2.20
   0  -1   4  265.95   15.88
   0  -1   5  806.99   20.26
   0  -1   6  105.10   10.98
   0  -1   7   21.00    8.05
   0  -1   8   29.68    8.66
   0  -1   9   23.07   11.28
   0  -1  10   49.73   14.14
   0  -1  11    8.59    6.80
   0  -1  12    0.57   15.16
   0  -1  13   52.15   17.20
   0   1 -13   43.48   10.59
   0   1 -12    7.13    9.02
   0   1 -11   31.55    8.91
   0   1 -10   17.79   12.87
   0   1  -9   48.93    9.03
   0   1  -8   46.05    6.14
   0   1  -7   35.90    7.68
   0   1  -6   96.44    6.24
   0   1  -5  843.28   11.83
   0   1  -4  228.97    9.91
   0   1  -3   11.52    2.68
   0   1  -2    9.29    2.49
   0   1  -1   34.93    6.94
   0   1   0 2420.51    9.76
   0   1   1  175.31    2.54
   0   1   2   51.84    3.31
   0   1   3  144.90    5.16
   0   1   4  448.69   27.13
   0   1   5  605.34   19.29
   0   1   6  105.15   10.74
   0   1   7   40.99   10.97
   0   1   8   70.01   11.58
   0   1   9   20.20   10.16
   0   1  10   33.72   11.05
   0   1  11   41.36   14.71
   0   1  12   41.91   14.94
   0   1  13   48.00   15.48
   0   2 -12    8.25   10.01
   0   2 -11   30.85   11.75
   0   2 -10   52.58   10.47
   0   2  -9   86.04    8.60
   0   2  -8   49.62   13.91
   0   2  -7   53.53    4.64
   0   2  -6   86.23    4.78
   0   2  -5  538.80   14.04
   0   2  -4   53.22    3.49
   0   2  -3    4.01    3.11
   0   2  -2   68.20   22.05
   0   2  -1  181.03    2.71
   0   2   0 3284.63   44.56
   0   2   1  222.01    8.74
   0   2   2  140.33    6.35
   0   2   3   66.85    3.94
   0   2   4  117.83    5.73
   0   2   5  200.81    8.60
   0   2   6  100.09    6.79
   0   2   7   82.50    6.74
   0   2   8  231.64   10.86
   0   2   9   97.25    9.91
   0   2  10   75.81    9.01
   0   2  11   66.22   15.68
   0   2  12   31.12   15.99
   0   3 -12   11.53   10.59
   0   3 -11   73.04   11.42
   0   3 -10  103.64   10.33
   0   3  -9  164.10   13.03
   0   3  -8  118.60    8.75
   0   3  -7  156.30    6.40
   0   3  -6  156.59    5.63
   0   3  -5  584.92   15.00
   0   3  -4   82.04    5.76
   0   3  -3   37.74    6.95
   0   3  -2  254.85    9.33
   0   3  -1  742.52    9.74
   0   3   0 3324.52   28.76
   0   3   1  740.53   26.98
   0   3   2  399.48   13.97
   0   3   3  239.45    7.40
   0   3   4  285.83    6.59
   0   3   5  348.95    8.61
   0   3   6  257.14    9.33
   0   3   7  221.52    9.92
   0   3   8  323.48   11.05
   0   3   9  164.36   10.46
   0   3  10  123.73   10.78
   0   3  11  108.63   17.59
   0   3  12   52.30   17.97
   0   4 -12    5.06   15.77
   0   4 -11   28.73   14.10
   0   4 -10   18.89   13.56
   0   4  -9    9.47   11.46
   0   4  -8    1.21   10.40
   0   4  -7   43.14    5.85
   0   4  -6   82.45    8.32
   0   4  -5  456.09   10.91
   0   4  -4  122.36    9.82
   0   4  -3   57.19    8.82
   0   4  -2   34.26    6.68
   0   4  -1   44.70    3.16
   0   4   0  368.41    8.27
   0   4   1   66.86    7.36
   0   4   2   70.55    4.77
   0   4   3  127.61    5.29
   0   4   4  174.00    7.44
   0   4   5  213.27    7.23
   0   4   6  138.31    7.00
   0   4   7   67.91    9.67
   0   4   8   91.53    8.96
   0   4   9   42.03    8.57
   0   4  10   12.45   13.71
   0   4  11   71.79   17.16
   0   4  12   20.54   17.42
   0   5 -11   27.13   15.46
   0   5 -10   30.84   13.37
   0   5  -9   49.64   14.99
   0   5  -7   51.04    9.18
   0   5  -6   29.68    7.94
   0   5  -5  146.64   11.98
   0   5  -4   11.58    8.27
   0   5  -3    6.34    8.71
   0   5  -2   31.19    8.38
   0   5  -1  193.78    6.26
   0   5   0  547.99    8.48
   0   5   1  230.84    7.00
   0   5   2  103.00    5.72
   0   5   3   52.05    5.63
   0   5   4   12.97    6.36
   0   5   5   40.11    6.86
   0   5   6   57.78    6.43
   0   5   7   75.45    8.40
   0   5   8  157.40    9.88
   0   5   9  114.06   16.24
   0   5  10   66.29   16.65
   0   5  11   49.37   16.38
   0   6  -6   69.83   12.13
   0   6  -5  204.41   14.55
   0   6  -4   73.72   12.24
   0   6  -3   50.14   10.92
   0   6  -2   25.16    8.21
   0   6  -1   83.81    4.41
   0   6   0  182.80    6.61
   0   6   1  117.35    6.23
   0   6   2   80.11    7.32
   0   6   3   99.17    5.92
   0   6   4  111.88    7.56
   0   6   5  147.65    7.99
   0   6   6  122.76   10.54
   0   6   7   72.14   11.00
   0   6   8   60.97   11.27
   0   6   9   47.97   15.12
   0   6  10   47.85   15.27
   0   6  11   54.74   18.81
   0   7  -6   47.22   12.66
   0   7  -5   94.16   14.67
   0   7  -4   47.73   12.49
   0   7  -3   35.73   12.16
   0   7  -2   12.50    8.58
   0   7  -1   41.72   12.07
   0   7   0  102.52   18.45
   0   7   1   91.00   10.14
   0   7   2   52.40    9.52
   0   7   3   38.43    9.73
   0   7   4   36.14    9.15
   0   7   5   51.26   10.44
   0   7   6   63.64   13.74
   0   7   7   41.61    8.87
   0   7   8   42.26   13.45
   0   7   9   55.90   14.98
   0   7  10   56.54   17.23
   0   8  -5   31.27   13.77
   0   8  -4    1.29   12.57
   0   8  -3    4.33   13.88
   0   8  -2    5.35   14.49
   0   8  -1   42.79   10.86
   0   8   0   71.76   10.96
   0   8   1   62.53   11.44
   0   8   2   27.55   10.49
   0   8   3    9.07    9.96
   0   8   4    4.60   10.06
   0   8   5   19.74   10.00
   0   8   6   32.76   14.09
   0   9  -4   40.47   17.09
   0   9  -3   22.26   16.49
   0   9  -2    0.21   16.40
   0   9  -1   16.48   17.16
   0   9   0   11.01   11.77
   0   9   1   13.87   14.89
   0   9   2   14.97   15.54
   0   9   3   16.36   16.02
   0   9   4   52.87   17.90
   0   9   5   44.98   17.80
   1  -9  -1   11.37   16.59
   1  -9   0   56.94   16.77
   1  -9   1   18.62   10.26
   1  -9   2   15.58    9.85
   1  -9   3   27.22   16.20
   1  -8  -6   25.31   17.11
   1  -8  -5   23.02   16.21
   1  -8  -4    1.85   15.64
   1  -8  -3    4.83   15.27
   1  -8   0  155.05   17.40
   1  -8   1   23.36   11.96
   1  -8   2    8.63   12.18
   1  -8   3    3.10    9.33
   1  -8   4    4.53    9.08
   1  -8   5   24.52   15.02
   1  -7  -9   20.41   16.46
   1  -7  -8   66.35   17.54
   1  -7  -7    9.27   15.18
   1  -7  -6   34.48   15.19
   1  -7  -5   63.95   16.51
   1  -7  -4   46.59    8.79
   1  -7  -3   23.37   10.34
   1  -7  -2   31.75    9.27
   1  -7  -1   28.93    7.74
   1  -7   0  207.91    9.31
   1  -7   1   26.47   10.97
   1  -7   2   48.54    7.93
   1  -7   3   53.16    8.46
   1  -7   4   63.64    7.15
   1  -7   5   90.55    7.73
   1  -7   6   30.73    9.42
   1  -7   7   17.72    9.16
   1  -7   8   29.11   12.42
   1  -7   9   42.73   14.46
   1  -6 -11   18.66   15.37
   1  -6 -10   11.90    9.89
   1  -6  -9    4.11    9.06
   1  -6  -8   61.10   10.79
   1  -6  -7   37.69    8.34
   1  -6  -6   87.48    9.80
   1  -6  -5  217.97   11.13
   1  -6  -4  112.27    8.00
   1  -6  -3   33.86    9.23
   1  -6  -2   45.04    9.43
   1  -6  -1   33.60    9.12
   1  -6   0  335.41   12.71
   1  -6   1   46.78    6.86
   1  -6   2   55.08   11.70
   1  -6   3  103.36    6.02
   1  -6   4  153.33   13.77
   1  -6   5  153.58    7.78
   1  -6   6   69.07    9.28
   1  -6   7   25.54    8.06
   1  -6   8   36.23   14.84
   1  -6   9   48.76   10.74
   1  -6  10   51.57   14.11
   1  -5 -12   18.00   15.31
   1  -5 -11   13.08   14.62
   1  -5 -10   18.42    8.61
   1  -5  -9   37.29    9.42
   1  -5  -8   85.17    9.32
   1  -5  -7   20.15    8.18
   1  -5  -6   21.73    7.04
   1  -5  -5   92.42    8.23
   1  -5  -4    2.39    7.15
   1  -5  -3    3.87    7.58
   1  -5  -2   38.19    6.64
   1  -5  -1   99.15    7.77
   1  -5   0  622.21   11.08
   1  -5   1   73.72    7.98
   1  -5   2   40.65    9.48
   1  -5   3   32.88    4.36
   1  -5   4   42.04    4.80
   1  -5   5   64.42    5.24
   1  -5   6   22.34    4.64
   1  -5   7   27.32    8.14
   1  -5   8   87.08   12.68
   1  -5   9  106.56   15.33
   1  -5  10   84.13   16.52
   1  -5  11    8.75   14.69
   1  -4 -12   22.93   17.89
   1  -4 -11   23.25   10.59
   1  -4 -10    8.22   10.21
   1  -4  -9   13.94    7.49
   1  -4  -8   29.16    8.20
   1  -4  -7   37.27    7.32
   1  -4  -6  111.27    8.65
   1  -4  -5  374.86   11.54
   1  -4  -4  136.83    8.69
   1  -4  -3   90.46    8.73
   1  -4  -2   43.29    7.93
   1  -4  -1   32.20    4.24
   1  -4   0  472.68    9.27
   1  -4   1  117.44    5.78
   1  -4   2  107.30    5.55
   1  -4   3  282.58    9.74
   1  -4   4  323.51   18.02
   1  -4   5  196.52    7.92
   1  -4   6  102.74   20.12
   1  -4   7   34.19   11.34
   1  -4   8   41.14   12.37
   1  -4   9   49.67   13.83
   1  -4  10   78.40   14.18
   1  -4  11   71.33   17.62
   1  -4  12   50.30   17.96
   1  -3 -13   73.34   16.99
   1  -3 -12   33.61   11.85
   1  -3 -11   70.01   11.76
   1  -3 -10   62.84    7.83
   1  -3  -9  110.27    9.59
   1  -3  -8  105.57    8.25
   1  -3  -7  160.53    9.84
   1  -3  -6  213.53    9.22
   1  -3  -5  567.21   17.88
   1  -3  -4   62.57    5.68
   1  -3  -3   33.25    5.35
   1  -3  -2  230.60    6.30
   1  -3  -1  482.12    9.88
   1  -3   0 1650.40   32.18
   1  -3   1  308.29    3.65
   1  -3   2  215.62   10.58
   1  -3   3  267.02    4.96
   1  -3   4  287.42    5.61
   1  -3   5  201.26    5.54
   1  -3   6  152.44    4.88
   1  -3   7  159.92   13.99
   1  -3   8  140.97   14.09
   1  -3   9  210.08   16.68
   1  -3  10  196.36   20.05
   1  -3  11  113.89   17.12
   1  -3  12   38.69   16.59
   1  -2 -13   45.15   13.35
   1  -2 -12   17.54   10.58
   1  -2 -11   39.50   10.03
   1  -2 -10   22.85    6.15
   1  -2  -9   61.10   10.04
   1  -2  -8   14.20    6.07
   1  -2  -7   77.19    7.65
   1  -2  -6   87.51    7.28
   1  -2  -5  356.57    8.98
   1  -2  -4   37.74   14.60
   1  -2  -3  141.30    6.28
   1  -2  -2  118.66    4.71
   1  -2  -1  238.53    5.24
   1  -2   0 1060.79   20.28
   1  -2   1  327.57   16.47
   1  -2   2  166.43    3.28
   1  -2   3  167.29    3.25
   1  -2   4  165.91    4.19
   1  -2   5   99.20    5.59
   1  -2   6   89.13   10.77
   1  -2   7   75.83   12.78
   1  -2   8   72.77   13.75
   1  -2   9  167.37   18.10
   1  -2  10  137.29   15.77
   1  -2  11  115.50   17.88
   1  -2  12   20.17   15.29
   1  -1 -13   44.37   27.30
   1  -1 -12   20.04    8.15
   1  -1 -11   38.46   10.28
   1  -1 -10   25.33   12.41
   1  -1  -9   47.03    5.75
   1  -1  -8   11.19    4.40
   1  -1  -7  103.26    6.36
   1  -1  -6  193.30   11.17
   1  -1  -5  591.92   11.46
   1  -1  -4  329.55    8.79
   1  -1  -3  496.88   21.30
   1  -1  -2  125.27    8.68
   1  -1  -1   14.71    8.74
   1  -1   0  753.45    9.12
   1  -1   1  388.25    3.02
   1  -1   2  486.24   14.38
   1  -1   3  424.91   17.17
   1  -1   4  592.47   36.17
   1  -1   5  404.12   26.38
   1  -1   6  184.50   18.22
   1  -1   7   70.33    9.71
   1  -1   8   16.99    5.92
   1  -1   9  232.68   16.80
   1  -1  10  109.29   16.02
   1  -1  11   92.10   12.44
   1  -1  12   32.80   11.41
   1  -1  13   13.69   27.65
   1   1 -13   52.72   10.34
   1   1 -12   46.73   14.88
   1   1 -11   38.82   21.47
   1   1 -10    5.53    7.27
   1   1  -9   29.53    4.82
   1   1  -8    8.43    7.16
   1   1  -7  113.20   17.84
   1   1  -6  167.28   26.92
   1   1  -5  361.69   17.43
   1   1  -4  418.34   14.96
   1   1  -3  447.64   22.94
   1   1  -2  109.80    3.80
   1   1  -1   58.51    2.19
   1   1   0  198.50    3.87
   1   1   1  206.01    3.42
   1   1   2  395.89   11.56
   1   1   3  220.23    4.44
   1   1   4  659.87    8.50
   1   1   5  585.83   27.55
   1   1   6  248.68   15.63
   1   1   7   92.75   12.11
   1   1   8   61.02   12.85
   1   1   9  114.92    9.95
   1   1  10  129.13   18.79
   1   1  11   61.68   10.01
   1   1  12   45.48   16.92
   1   2 -13   22.28   17.69
   1   2 -12   38.13   10.97
   1   2 -11   65.63   10.29
   1   2 -10    6.08    8.63
   1   2  -9   40.68    8.85
   1   2  -8   11.24    4.49
   1   2  -7   98.84    5.68
   1   2  -6  113.29    6.05
   1   2  -5  227.13    5.83
   1   2  -4   43.07    3.52
   1   2  -3   46.55    4.75
   1   2  -2   22.08    3.56
   1   2  -1   81.54    5.21
   1   2   0  113.89    3.70
   1   2   1  180.89   14.57
   1   2   2  136.60    5.54
   1   2   3   32.03    3.23
   1   2   4  154.86    4.00
   1   2   5  184.91    6.31
   1   2   6   80.64    5.63
   1   2   7   57.59    6.38
   1   2   8   12.04    5.73
   1   2   9  223.07   11.44
   1   2  10  152.85   17.08
   1   2  11   88.89   17.62
   1   2  12    7.39   14.73
   1   3 -12   70.70   12.52
   1   3 -11  105.60   12.13
   1   3 -10   55.98   15.56
   1   3  -9   75.60    9.05
   1   3  -8   47.84    5.79
   1   3  -7  126.19    6.29
   1   3  -6  209.99    6.84
   1   3  -5  305.51   14.88
   1   3  -4  135.44    6.19
   1   3  -3  100.71    6.69
   1   3  -2  103.72    9.41
   1   3  -1  208.20   10.67
   1   3   0  350.00   34.47
   1   3   1  277.81    6.44
   1   3   2  187.64    5.43
   1   3   3   86.12    5.45
   1   3   4  307.19    8.08
   1   3   5  322.33    6.67
   1   3   6  190.77    7.43
   1   3   7  121.67    7.10
   1   3   8    6.73    5.64
   1   3   9  319.86   21.20
   1   3  10  193.77   19.28
   1   3  11   98.36   18.31
   1   3  12   57.34   18.60
   1   4 -12   45.88   17.52
   1   4 -11   55.90   11.26
   1   4 -10   12.66    9.29
   1   4  -9   32.08    9.58
   1   4  -8   13.49    5.50
   1   4  -7   38.95    8.05
   1   4  -6   98.25    9.73
   1   4  -5  144.26   11.15
   1   4  -4  185.17   11.53
   1   4  -3  104.23   10.66
   1   4  -2   66.93    9.06
   1   4  -1   47.17    9.34
   1   4   0   58.02    2.26
   1   4   1   66.38    6.76
   1   4   2  123.15    5.09
   1   4   3   53.79    5.08
   1   4   4  396.66    7.72
   1   4   5  320.35    9.24
   1   4   6  124.84    6.23
   1   4   7   37.86    5.28
   1   4   8   13.85   11.62
   1   4   9  137.41   16.53
   1   4  10   83.22   17.34
   1   4  11   67.00   16.73
   1   4  12   43.64   17.61
   1   5  -7   23.54    8.42
   1   5  -6   78.61   10.15
   1   5  -5   90.97   11.88
   1   5  -4   20.82    9.32
   1   5  -3    1.61    8.69
   1   5  -2   14.79    9.60
   1   5  -1   36.45   10.24
   1   5   0   51.78   22.05
   1   5   1   41.77    3.84
   1   5   2   18.48    6.44
   1   5   3   19.60    4.81
   1   5   4   35.79    5.85
   1   5   5   37.56    5.98
   1   5   6   17.84    5.55
   1   5   7   13.29    5.51
   1   5   8    0.40    8.23
   1   5   9  115.16   16.05
   1   5  10   57.49   15.93
   1   5  11   26.35   16.25
   1   6  -7   33.04   10.95
   1   6  -6  100.59   13.57
   1   6  -5  139.39   15.24
   1   6  -4   94.67   12.99
   1   6  -3   55.41   12.18
   1   6  -2   71.57   13.26
   1   6  -1   49.27   12.17
   1   6   0   68.27    8.98
   1   6   1   54.32    8.19
   1   6   2   58.06    5.04
   1   6   3   29.49    5.42
   1   6   4  211.86   11.26
   1   6   5  169.94    8.40
   1   6   6   85.10    7.26
   1   6   7   27.18    8.38
   1   6   8    1.26    8.59
   1   6   9   85.43   15.27
   1   6  10   69.37   16.55
   1   7  -6   64.22   13.77
   1   7  -5   44.50   13.44
   1   7  -4   28.65   13.02
   1   7  -3   16.17   12.18
   1   7  -2   61.76   13.62
   1   7  -1   27.02   13.42
   1   7   0   34.38   13.60
   1   7   1   34.12    9.52
   1   7   2   38.51    9.45
   1   7   3    8.67    8.70
   1   7   4   77.58   11.06
   1   7   5   61.09   12.66
   1   7   6   32.19   15.71
   1   7   7   10.22   14.60
   1   8  -6   23.64   15.97
   1   8  -5   19.00   13.91
   1   8  -4    3.62   13.21
   1   8  -3   10.49   13.78
   1   8  -2   22.04   15.40
   1   8  -1    7.34   14.24
   1   8   0   11.80   15.77
   1   8   1    1.22    9.65
   1   8   2    0.25    9.97
   1   8   3    2.17   10.05
   1   8   4   10.45   10.10
   1   8   5    2.02   15.23
   1   9   3   20.16   16.31
   2  -9   0   28.56   13.70
   2  -9   1   22.78   12.83
   2  -9   2   16.36    9.47
   2  -9   3   33.30   10.19
   2  -8  -5   45.75   16.74
   2  -8  -4    1.43   15.57
   2  -8  -3    0.85   15.16
   2  -8  -2    2.83   14.67
   2  -8  -1   13.06    8.36
   2  -8   0    8.92    8.33
   2  -8   1   20.22    9.29
   2  -8   2    0.42    8.52
   2  -8   3    5.57    8.12
   2  -8   4    4.69    8.58
   2  -8   5    4.79   11.14
   2  -7  -9   14.29   16.78
   2  -7  -8   16.67   15.41
   2  -7  -7   23.33   15.49
   2  -7  -6   31.06   15.51
   2  -7  -5   53.84   16.87
   2  -7  -4   32.18   14.27
   2  -7  -3   26.70   14.23
   2  -7  -2   26.17   14.53
   2  -7  -1   53.80    8.62
   2  -7   0   35.06    8.47
   2  -7   1   40.41    8.09
   2  -7   2   16.47    8.24
   2  -7   3   30.15    8.67
   2  -7   4   40.28    8.29
   2  -7   5   35.39   11.86
   2  -7   6   33.61   14.36
   2  -7   7   19.75   14.64
   2  -6 -11   58.18   17.41
   2  -6 -10   13.45   15.51
   2  -6  -9   72.39   17.42
   2  -6  -8   29.33   13.91
   2  -6  -7   81.46   16.19
   2  -6  -6   86.03   15.91
   2  -6  -5  123.97   16.38
   2  -6  -4   79.02   14.98
   2  -6  -3  106.26   15.22
   2  -6  -2   76.51    5.79
   2  -6  -1   74.64    7.04
   2  -6   0   72.96    5.40
   2  -6   1   79.65    6.38
   2  -6   2   65.13    5.47
   2  -6   3   94.44    6.33
   2  -6   4  135.80    5.85
   2  -6   5  112.79    6.09
   2  -6   6   65.62    6.59
   2  -6   7   39.70    7.22
   2  -6   8    1.57   13.91
   2  -6   9   85.77   17.82
   2  -5 -11   37.35   14.48
   2  -5 -10   11.03    9.05
   2  -5  -9   12.03    8.17
   2  -5  -8   13.67    8.10
   2  -5  -7   55.09    7.98
   2  -5  -6   61.04    7.74
   2  -5  -5  177.05    9.20
   2  -5  -4    3.13    5.42
   2  -5  -3   17.24    4.70
   2  -5  -2   36.46    3.25
   2  -5  -1   20.50    2.87
   2  -5   0   11.09    2.89
   2  -5   1   35.95    5.42
   2  -5   2    1.63    3.82
   2  -5   3   38.41    4.70
   2  -5   4   30.64    4.20
   2  -5   5   19.03    3.98
   2  -5   6    3.55   10.39
   2  -5   7   19.82   11.58
   2  -5   8   14.31   12.31
   2  -5   9   86.42   15.56
   2  -5  10   40.61   15.99
   2  -5  11    0.19   15.43
   2  -4 -13   58.31   16.54
   2  -4 -12   85.13   17.09
   2  -4 -11   92.84   10.43
   2  -4 -10   30.42    8.43
   2  -4  -9   60.28   10.27
   2  -4  -8   33.37    7.66
   2  -4  -7  101.00    8.95
   2  -4  -6  104.94    9.74
   2  -4  -5  126.33    8.13
   2  -4  -4  182.31   11.02
   2  -4  -3  155.72    6.60
   2  -4  -2  144.62   12.39
   2  -4  -1  129.55    3.33
   2  -4   0   77.44    2.53
   2  -4   1   84.31    3.67
   2  -4   2  101.33    4.36
   2  -4   3   83.77    4.85
   2  -4   4  254.94    8.16
   2  -4   5  201.09    9.13
   2  -4   6   61.79    6.26
   2  -4   7   20.92   11.59
   2  -4   8    8.93   12.72
   2  -4   9  133.30   17.33
   2  -4  10   45.14   15.56
   2  -4  11   48.69   16.50
   2  -3 -13   59.56   16.61
   2  -3 -12   95.44   12.77
   2  -3 -11   85.49   14.94
   2  -3 -10   55.87    8.89
   2  -3  -9   82.86    8.19
   2  -3  -8   91.13    8.93
   2  -3  -7  190.40    9.20
   2  -3  -6  230.44    9.73
   2  -3  -5  222.60   17.65
   2  -3  -4  185.12    7.67
   2  -3  -3  154.05   12.81
   2  -3  -2  166.82   13.58
   2  -3  -1  141.37    5.98
   2  -3   0   54.88   15.21
   2  -3   1  132.49    5.63
   2  -3   2  139.30    9.78
   2  -3   3  118.31    8.02
   2  -3   4  308.96    8.19
   2  -3   5  217.13    4.97
   2  -3   6   71.29    8.28
   2  -3   7   59.08   12.84
   2  -3   8   24.47   12.38
   2  -3   9  242.66   20.00
   2  -3  10   87.95   16.42
   2  -3  11   59.88   17.22
   2  -3  12   22.28   16.63
   2  -2 -13   51.86   15.44
   2  -2 -12   70.51   11.95
   2  -2 -11   67.13   11.23
   2  -2 -10   33.49    7.23
   2  -2  -9   46.60    9.71
   2  -2  -8   66.41    9.37
   2  -2  -7   99.46    7.82
   2  -2  -6  129.02    9.47
   2  -2  -5  135.89    7.46
   2  -2  -4  109.19    5.05
   2  -2  -3  100.32    5.40
   2  -2  -2  146.87    2.77
   2  -2  -1   64.90    9.44
   2  -2   0   33.24    5.14
   2  -2   1   13.15    4.72
   2  -2   2   43.72    3.69
   2  -2   3   26.50    4.33
   2  -2   4  197.81    3.50
   2  -2   5  112.43    4.06
   2  -2   6   12.29    9.63
   2  -2   7    1.57   11.20
   2  -2   8   58.93   13.81
   2  -2   9  163.95   16.44
   2  -2  10   42.33   15.48
   2  -2  11    4.99   14.63
   2  -2  12   20.07   16.62
   2  -1 -13   50.55   12.17
   2  -1 -12   94.96   18.44
   2  -1 -11  107.42   11.44
   2  -1 -10   99.77   15.96
   2  -1  -9   89.50    9.97
   2  -1  -8   99.54    7.65
   2  -1  -7  127.02    7.22
   2  -1  -6  130.16   24.24
   2  -1  -5   97.51    6.11
   2  -1  -4  250.99    9.86
   2  -1  -3  202.61    6.55
   2  -1  -2  390.27   26.54
   2  -1  -1  327.91   42.49
   2  -1   0  318.56    6.89
   2  -1   1  142.91    6.82
   2  -1   2  154.01    4.43
   2  -1   3   28.35    2.57
   2  -1   4  629.45   57.76
   2  -1   5  298.79   27.46
   2  -1   6   61.83   10.72
   2  -1   7   17.06    5.27
   2  -1   8   25.70   11.53
   2  -1   9  166.62   17.04
   2  -1  10   85.74   15.41
   2  -1  11   34.23   16.12
   2  -1  12   18.87   10.35
   2   1 -13   60.48   11.36
   2   1 -12   75.87   11.67
   2   1 -11  117.20   13.76
   2   1 -10  101.20   11.00
   2   1  -9  102.20    6.76
   2   1  -8   91.79    8.77
   2   1  -7  117.46   10.77
   2   1  -6  137.13   14.49
   2   1  -5  170.70    5.30
   2   1  -4  208.48    7.34
   2   1  -3  203.85    7.61
   2   1  -2  650.70   22.80
   2   1  -1  408.63    6.20
   2   1   0  484.62    8.58
   2   1   1   95.02    6.11
   2   1   2  111.52    3.55
   2   1   3   62.08    4.34
   2   1   4  566.08  100.95
   2   1   5  221.56   22.21
   2   1   6   42.82    4.79
   2   1   7   18.17    2.90
   2   1   8   15.85   10.75
   2   1   9  117.29   14.71
   2   1  10   35.80   13.35
   2   1  11   38.87   14.74
   2   1  12   34.08   13.49
   2   2 -13   60.86   19.48
   2   2 -12   40.36   17.86
   2   2 -11   48.74   10.70
   2   2 -10   67.00   10.47
   2   2  -9   47.63    7.84
   2   2  -8   38.59    6.04
   2   2  -7   83.90    6.24
   2   2  -6  104.35    5.47
   2   2  -5  117.85    8.26
   2   2  -4   61.41    9.33
   2   2  -3   35.79    3.81
   2   2  -2  328.90   11.80
   2   2  -1   71.80    3.88
   2   2   0  174.11    7.41
   2   2   1    7.13    3.87
   2   2   2   33.63    4.55
   2   2   3    4.92    5.13
   2   2   4  364.11    9.10
   2   2   5   98.79    7.00
   2   2   6   23.68    6.24
   2   2   7   31.56    6.43
   2   2   8   56.15    6.64
   2   2   9   60.54   13.86
   2   2  10   44.30   15.04
   2   2  11   20.77   15.77
   2   2  12    8.88   16.82
   2   3 -13   68.13   18.56
   2   3 -12   96.99   15.72
   2   3 -11   98.55   12.09
   2   3 -10  129.73   11.40
   2   3  -9   66.20    7.31
   2   3  -8   59.58    5.85
   2   3  -7  200.97    9.52
   2   3  -6  177.73   12.40
   2   3  -5  238.64    7.89
   2   3  -4  186.73    6.44
   2   3  -3  169.55    6.10
   2   3  -2  591.96    8.29
   2   3  -1  178.62    4.94
   2   3   0  239.60    3.66
   2   3   1   16.40    3.85
   2   3   2   79.44    5.62
   2   3   3   75.40    6.03
   2   3   4  459.40   18.67
   2   3   5  189.45    8.53
   2   3   6   95.53    4.19
   2   3   7   49.31    7.71
   2   3   8   44.70   11.01
   2   3   9   60.57   14.95
   2   3  10   52.43   15.60
   2   3  11   27.02   16.38
   2   4 -12   67.25   18.56
   2   4 -11   58.87   16.31
   2   4 -10  106.97   16.32
   2   4  -9   69.84   13.37
   2   4  -8   49.69    8.12
   2   4  -7  205.94   17.14
   2   4  -6   60.66   10.21
   2   4  -5   99.64   12.03
   2   4  -4   96.37    5.25
   2   4  -3   92.76   15.56
   2   4  -2  450.28   18.62
   2   4  -1  207.31   12.59
   2   4   0  207.60   12.61
   2   4   1   55.68    4.11
   2   4   2   91.44    5.41
   2   4   3   85.12    5.22
   2   4   4  263.84    8.96
   2   4   5  128.03    5.77
   2   4   6   71.58   15.28
   2   4   7   27.06    7.82
   2   4   8   33.11    8.43
   2   4   9   59.29    8.97
   2   4  10   47.79   16.15
   2   4  11   55.54   16.84
   2   5  -8    2.14    8.73
   2   5  -7   77.91   12.53
   2   5  -6   50.51   11.01
   2   5  -5   60.74   10.79
   2   5  -4   28.57   10.27
   2   5  -3   13.04    9.79
   2   5  -2  129.14   12.96
   2   5  -1   27.85   11.21
   2   5   0   33.01   10.41
   2   5   1   14.75    9.56
   2   5   2    3.70    3.75
   2   5   3   13.40    4.44
   2   5   4  101.48    6.17
   2   5   5   39.97    5.68
   2   5   6   31.48    7.62
   2   5   7   15.43    7.95
   2   5   8   24.88    8.93
   2   5   9   16.50    8.72
   2   5  10    1.47   14.83
   2   5  11    7.34   16.93
   2   6  -7  173.88   16.07
   2   6  -6   41.60   12.14
   2   6  -5   74.60   13.11
   2   6  -4   65.72   13.79
   2   6  -3   90.77   13.73
   2   6  -2  251.83   18.45
   2   6  -1  111.99   14.38
   2   6   0   89.29   14.99
   2   6   1   94.93   14.31
   2   6   2   52.09   12.86
   2   6   3   86.63   14.17
   2   6   4  131.23   10.74
   2   6   5   90.89   15.01
   2   6   6   69.52   15.77
   2   6   7    9.76   13.53
   2   6   8   25.93   14.52
   2   6   9   24.70   14.11
   2   7  -7   97.22   16.55
   2   7  -6   14.76   14.42
   2   7  -5   38.85   13.99
   2   7  -4   31.71   13.68
   2   7  -3   51.01   15.61
   2   7  -2  106.15   16.34
   2   7  -1   49.87   14.56
   2   7   0   35.25   14.00
   2   7   1   49.66   14.77
   2   7   2   19.38   13.77
   2   7   3   40.21   15.27
   2   7   4   71.24   15.68
   2   7   5   74.88   17.68
   2   7   6   34.86   15.49
   2   7   7    3.33   14.98
   2   7   8   12.86   16.04
   2   8  -6    1.87   15.75
   2   8  -5    5.45   14.83
   2   8  -4    0.71   14.13
   2   8  -3   12.63   15.33
   2   8  -2   29.14   15.34
   2   8  -1   10.00   15.99
   2   8   0    1.33   15.19
   2   8   1   14.79   15.75
   2   8   2    2.57   15.66
   2   8   3    2.99   15.53
   2   8   4   26.56   17.08
   3  -8  -4   29.50   17.04
   3  -8  -3    4.33   16.36
   3  -8  -2   11.10   15.41
   3  -8  -1    5.55   15.48
   3  -8   0    6.42   15.09
   3  -8   1   11.27    9.17
   3  -8   2    4.25    9.46
   3  -8   3    5.55    8.24
   3  -8   4   19.60   13.18
   3  -8   5    5.84   12.27
   3  -7  -7   44.28   17.33
   3  -7  -6   45.19   17.08
   3  -7  -5   23.43   14.89
   3  -7  -4   68.49   17.18
   3  -7  -3   65.75   16.25
   3  -7  -2   85.19   17.16
   3  -7  -1   51.85    8.74
   3  -7   0   18.51    7.91
   3  -7   1   35.69    9.04
   3  -7   2   31.36    8.50
   3  -7   3   11.46    8.17
   3  -7   4   60.11    9.64
   3  -7   5   41.70   12.91
   3  -7   6   22.41   11.49
   3  -6 -10   83.72   17.81
   3  -6  -9   48.71   17.10
   3  -6  -8   93.97   18.23
   3  -6  -7   98.25   17.73
   3  -6  -6   44.56   14.15
   3  -6  -5   31.17   15.35
   3  -6  -4  137.76   17.23
   3  -6  -3  101.92   16.34
   3  -6  -2  216.70   10.19
   3  -6  -1  129.14    9.08
   3  -6   0   87.60    9.15
   3  -6   1   75.47    8.56
   3  -6   2   83.19    8.68
   3  -6   3   39.40    9.34
   3  -6   4  137.60    8.18
   3  -6   5   79.15    9.63
   3  -6   6   36.49    8.94
   3  -6   7   32.90   14.18
   3  -6   8   27.04   15.15
   3  -6   9   81.53   18.36
   3  -5 -11   28.85   14.39
   3  -5 -10   44.20   14.12
   3  -5  -9    7.99   13.57
   3  -5  -8   36.37   13.54
   3  -5  -7   51.75   13.97
   3  -5  -6   22.30   13.46
   3  -5  -5   18.04   12.01
   3  -5  -4   57.54   13.68
   3  -5  -3   46.33   12.90
   3  -5  -2  106.24    9.27
   3  -5  -1   40.88    6.66
   3  -5   0   60.81    6.95
   3  -5   1   17.59    9.71
   3  -5   2   18.59    6.63
   3  -5   3    0.55    8.69
   3  -5   4  131.67   12.08
   3  -5   5   29.81   14.96
   3  -5   6    6.98   11.96
   3  -5   7   12.76   12.67
   3  -5   8   67.57   15.90
   3  -5   9   15.67   14.25
   3  -5  10    9.24   16.81
   3  -4 -11   50.71   15.15
   3  -4 -10  119.36   16.23
   3  -4  -9   78.55   10.56
   3  -4  -8   93.47    8.98
   3  -4  -7  115.34    8.34
   3  -4  -6   53.97    6.06
   3  -4  -5   41.78    5.49
   3  -4  -4   95.84   12.27
   3  -4  -3  158.27   14.53
   3  -4  -2  423.68    9.93
   3  -4  -1  188.81    7.25
   3  -4   0  193.73   13.17
   3  -4   1   50.00   10.07
   3  -4   2   92.46    5.20
   3  -4   3   67.20    9.62
   3  -4   4  186.26   11.76
   3  -4   5   76.38    6.72
   3  -4   6   35.72   13.03
   3  -4   7   49.55   13.35
   3  -4   8   49.80   15.30
   3  -4   9   86.26   16.85
   3  -4  10   12.40   15.86
   3  -3 -13   30.57   14.87
   3  -3 -12   26.59   14.22
   3  -3 -11   64.94   15.33
   3  -3 -10  109.21   10.09
   3  -3  -9   76.01    8.88
   3  -3  -8  111.18    8.36
   3  -3  -7  245.55   10.07
   3  -3  -6  120.78    7.73
   3  -3  -5  137.68    6.76
   3  -3  -4  144.21    9.02
   3  -3  -3  182.53   14.03
   3  -3  -2  553.68   13.22
   3  -3  -1  236.97   24.21
   3  -3   0  276.81   14.15
   3  -3   1  134.60   10.77
   3  -3   2  194.81    9.24
   3  -3   3  187.48   11.29
   3  -3   4  400.46   13.87
   3  -3   5  155.36    9.96
   3  -3   6   66.36    5.90
   3  -3   7   76.08   14.44
   3  -3   8  104.56   17.13
   3  -3   9   78.48   16.65
   3  -3  10   38.48   15.63
   3  -3  11   23.61   17.04
   3  -2 -13   26.32   14.42
   3  -2 -12   41.68   26.13
   3  -2 -11   29.18   12.07
   3  -2 -10   61.20    9.01
   3  -2  -9   36.02    7.78
   3  -2  -8   38.99    7.03
   3  -2  -7  200.20   20.10
   3  -2  -6   44.28    8.91
   3  -2  -5   56.40    5.46
   3  -2  -4   51.03    9.26
   3  -2  -3   95.11   10.89
   3  -2  -2  508.67    6.03
   3  -2  -1  124.85   11.30
   3  -2   0   69.68   10.15
   3  -2   1   81.82    6.41
   3  -2   2   89.50    4.85
   3  -2   3   83.70    5.42
   3  -2   4  225.54   11.28
   3  -2   5   62.33    5.52
   3  -2   6   44.78    4.49
   3  -2   7   58.75   13.57
   3  -2   8   72.41   15.19
   3  -2   9   10.92   13.23
   3  -2  10   17.55   15.79
   3  -2  11   39.30   18.01
   3  -1 -13   14.82   15.47
   3  -1 -12   42.54   10.87
   3  -1 -11   57.61   10.58
   3  -1 -10  109.55    8.87
   3  -1  -9   89.85    8.64
   3  -1  -8   90.51    7.78
   3  -1  -7  292.11   10.49
   3  -1  -6   15.54    5.58
   3  -1  -5   37.90    7.60
   3  -1  -4   37.95    7.75
   3  -1  -3  159.97   12.40
   3  -1  -2  930.61   17.47
   3  -1  -1  325.41   15.21
   3  -1   0  303.49   21.42
   3  -1   1  123.41    6.29
   3  -1   2  187.48    8.78
   3  -1   3  158.67   13.19
   3  -1   4  212.55    5.15
   3  -1   5   82.42   10.59
   3  -1   6   72.24   12.03
   3  -1   7  102.19   13.83
   3  -1   8  126.47   16.40
   3  -1   9   79.36   14.27
   3  -1  10   42.55   16.06
   3  -1  11   67.67   16.94
   3   1 -13   19.32   24.99
   3   1 -12   45.87   11.57
   3   1 -11   29.75   13.98
   3   1 -10   58.64    7.90
   3   1  -9   73.17   12.13
   3   1  -8   68.84    8.54
   3   1  -7  398.95   14.54
   3   1  -6    6.57    5.37
   3   1  -5   33.04    8.35
   3   1  -4   55.69    8.85
   3   1  -3  212.43   10.75
   3   1  -2  877.32   28.28
   3   1  -1  310.55    8.85
   3   1   0  227.90   13.21
   3   1   1  139.04    5.01
   3   1   2  129.80    8.12
   3   1   3  128.96    9.11
   3   1   4  108.20   12.27
   3   1   5   57.55   21.46
   3   1   6   69.06   11.63
   3   1   7  100.36    6.51
   3   1   8  149.33   16.79
   3   1   9   92.26   15.40
   3   1  10    0.17   15.77
   3   1  11   42.95   16.54
   3   2 -13   10.01   16.85
   3   2 -12   48.78   11.86
   3   2 -11   10.00    9.70
   3   2 -10   11.66    6.71
   3   2  -9   42.46    7.32
   3   2  -8   40.41    8.45
   3   2  -7  307.28   23.57
   3   2  -6   17.80    6.80
   3   2  -5   33.87    5.79
   3   2  -4   38.60    9.51
   3   2  -3  117.62    9.54
   3   2  -2  299.18   18.18
   3   2  -1  120.69    6.60
   3   2   0  119.98    5.82
   3   2   1  119.07   12.82
   3   2   2  102.07   13.77
   3   2   3  132.35    7.63
   3   2   4  130.93    8.69
   3   2   5  108.88    7.59
   3   2   6   64.63    7.22
   3   2   7   93.51    8.61
   3   2   8   36.00   13.80
   3   2   9   68.30   15.76
   3   2  10   15.80   15.77
   3   2  11   48.73   17.98
   3   3 -13   23.44   18.08
   3   3 -12   97.14   18.24
   3   3 -11   31.04   14.45
   3   3 -10   20.96   13.11
   3   3  -9   71.08    8.74
   3   3  -8   60.54    8.52
   3   3  -7  392.63   28.20
   3   3  -6   67.79    7.21
   3   3  -5   99.51    6.87
   3   3  -4  163.56   11.66
   3   3  -3  230.41    8.38
   3   3  -2  413.15    9.54
   3   3  -1  283.93    7.45
   3   3   0  249.79    9.46
   3   3   1  187.96    5.39
   3   3   2  191.82   11.26
   3   3   3  204.36    8.89
   3   3   4  230.05   10.04
   3   3   5  195.61    9.74
   3   3   6  116.01    9.44
   3   3   7  157.61   13.74
   3   3   8   76.37    9.03
   3   3   9  133.14   17.52
   3   3  10   25.65   15.63
   3   3  11   47.59   18.22
   3   4  -9   64.38   12.58
   3   4  -8   53.46    7.85
   3   4  -7  198.50   10.51
   3   4  -6   32.54   10.83
   3   4  -5   16.87   10.83
   3   4  -4   44.40   11.17
   3   4  -3   87.69   12.60
   3   4  -2  246.67   16.21
   3   4  -1  189.15    3.50
   3   4   0  145.51    4.31
   3   4   1  103.05    5.33
   3   4   2   89.76    6.43
   3   4   3   66.60    7.59
   3   4   4   72.17    7.37
   3   4   5   66.62    8.24
   3   4   6   44.56    8.15
   3   4   7   79.17    9.76
   3   4   8   73.31    9.65
   3   4   9   92.85   17.22
   3   4  10   28.96   15.85
   3   5  -8   19.90   11.52
   3   5  -7   93.96   13.92
   3   5  -6   29.41   12.74
   3   5  -5   22.10   11.13
   3   5  -4   54.38   13.37
   3   5  -3   44.30   11.68
   3   5  -2   34.54   11.89
   3   5  -1   60.59   12.34
   3   5   0   98.29   13.87
   3   5   1    5.49   11.07
   3   5   2   85.42   14.50
   3   5   3   56.52   12.04
   3   5   4   93.92   14.85
   3   5   5   62.29    8.03
   3   5   6   10.90    7.85
   3   5   7   64.34    9.54
   3   5   8   43.61   10.32
   3   5   9   42.18   15.07
   3   6  -8   45.54   13.93
   3   6  -7   99.57   16.45
   3   6  -6   38.78   12.88
   3   6  -5   17.30   13.49
   3   6  -4   13.92   12.32
   3   6  -3   50.94   14.58
   3   6  -2  121.75   15.85
   3   6  -1  142.94   16.42
   3   6   0  103.87   15.09
   3   6   1   60.32   14.17
   3   6   2   82.36   14.32
   3   6   3   51.62   15.06
   3   6   4   57.40   14.69
   3   6   5   53.65   15.92
   3   6   6   23.11   14.00
   3   6   7   77.95   16.15
   3   6   8   69.14   15.78
   3   7  -7   57.56   16.32
   3   7  -6   33.00   14.58
   3   7  -5   14.53   13.65
   3   7  -4   15.26   14.51
   3   7  -3   17.93   13.57
   3   7  -2   35.58   15.53
   3   7  -1   41.56   15.44
   3   7   0   47.54   15.73
   3   7   1   24.72   15.11
   3   7   2   73.00   17.68
   3   7   3   44.29   15.76
   3   7   4   59.86   16.95
   3   7   5   23.46   15.70
   3   7   6   15.25   16.23
   4  -8  -1   21.91   17.07
   4  -8   0   13.11   15.29
   4  -8   1   14.56   16.24
   4  -8   2    5.28   14.80
   4  -7  -5   18.51   15.98
   4  -7  -4   28.79   15.93
   4  -7  -3   16.22   14.82
   4  -7  -2   49.37   16.89
   4  -7  -1   42.54   15.79
   4  -7   0   28.35   14.59
   4  -7   1   42.97   15.01
   4  -7   2   49.40   15.94
   4  -7   3   68.70    9.59
   4  -7   4   21.86    9.45
   4  -7   5   14.19   10.40
   4  -7   6   30.75   15.01
   4  -6  -8   37.40   16.80
   4  -6  -7  111.71   18.24
   4  -6  -6   21.45   15.02
   4  -6  -5   15.94   14.43
   4  -6  -4   24.24   15.10
   4  -6  -3   44.95   14.84
   4  -6  -2  140.41   16.70
   4  -6  -1   91.63   16.18
   4  -6   0   62.77   14.35
   4  -6   1   66.14    8.80
   4  -6   2   61.36    8.59
   4  -6   3   67.41   13.37
   4  -6   4   19.65    8.27
   4  -6   5   33.87   14.00
   4  -6   6   37.06   15.24
   4  -6   7   60.19   17.18
   4  -6   8   70.37   19.32
   4  -5 -10    1.15   14.74
   4  -5  -9    3.40   14.26
   4  -5  -8   13.10   14.85
   4  -5  -7   98.42   16.48
   4  -5  -6   47.42   15.21
   4  -5  -5   45.47   13.94
   4  -5  -4   43.22   14.37
   4  -5  -3   35.50   13.45
   4  -5  -2   27.61   13.00
   4  -5  -1   46.90    6.68
   4  -5   0   35.20    7.06
   4  -5   1   52.31    7.21
   4  -5   2   71.89   13.06
   4  -5   3  141.15   13.65
   4  -5   4   47.37   11.40
   4  -5   5   46.43   13.97
   4  -5   6   18.83   14.62
   4  -5   7   58.09   15.39
   4  -5   8   54.83   16.88
   4  -5   9   22.27   17.04
   4  -4 -11   14.83   13.64
   4  -4 -10   23.70   14.73
   4  -4  -9   26.36   14.87
   4  -4  -8   31.17   13.87
   4  -4  -7  117.08   16.73
   4  -4  -6   30.61   12.58
   4  -4  -5    7.75   12.47
   4  -4  -4    2.30   11.73
   4  -4  -3   52.85   12.72
   4  -4  -2  137.99    5.91
   4  -4  -1   86.36    6.66
   4  -4   0   61.87   11.02
   4  -4   1   66.66   12.67
   4  -4   2   48.55   10.71
   4  -4   3   46.33   10.97
   4  -4   4    2.39    8.95
   4  -4   5   21.17    9.17
   4  -4   6    6.69   13.24
   4  -4   7   98.57   17.26
   4  -4   8   91.35   18.13
   4  -4   9   55.62   17.90
   4  -3 -11   24.50   14.62
   4  -3 -10   27.07   13.76
   4  -3  -9   51.49   13.45
   4  -3  -8   87.86   15.45
   4  -3  -7  246.47    9.77
   4  -3  -6  119.28   16.12
   4  -3  -5   76.44   12.50
   4  -3  -4  111.97   14.83
   4  -3  -3  128.76   13.83
   4  -3  -2  147.93    5.05
   4  -3  -1  152.49   13.44
   4  -3   0  123.75   13.85
   4  -3   1  147.07   12.15
   4  -3   2  225.19   16.20
   4  -3   3  228.45   13.02
   4  -3   4  102.49   11.67
   4  -3   5   82.60    7.40
   4  -3   6   41.05   14.68
   4  -3   7  125.55   17.94
   4  -3   8   82.09   17.41
   4  -3   9   93.49   18.82
   4  -3  10   27.81   17.50
   4  -2 -12   75.04   52.20
   4  -2 -11    5.48    8.41
   4  -2 -10    0.81    8.05
   4  -2  -9   21.12    7.69
   4  -2  -8   29.57    7.03
   4  -2  -7  184.97   10.34
   4  -2  -6   77.59   12.21
   4  -2  -5   38.78   12.39
   4  -2  -4   51.64   10.56
   4  -2  -3   44.05   11.93
   4  -2  -2   51.35   10.94
   4  -2  -1   74.89   12.12
   4  -2   0   51.81    9.46
   4  -2   1   34.14    4.24
   4  -2   2  126.21    7.43
   4  -2   3  117.81    7.59
   4  -2   4   63.53    8.27
   4  -2   5   48.58    8.01
   4  -2   6   17.53    6.16
   4  -2   7   90.54   16.84
   4  -2   8   35.10   15.08
   4  -2   9   89.05   18.31
   4  -2  10   20.37   16.24
   4  -1 -13    5.23   11.45
   4  -1 -12   81.16   34.08
   4  -1 -11    9.92   21.44
   4  -1 -10   21.42    7.20
   4  -1  -9   52.82    7.98
   4  -1  -8   59.78    9.30
   4  -1  -7  152.40   13.24
   4  -1  -6   75.24   12.36
   4  -1  -5   16.15    6.93
   4  -1  -4    6.36    9.70
   4  -1  -3   48.32    2.94
   4  -1  -2   90.38   10.94
   4  -1  -1   90.92   10.56
   4  -1   0  104.11    6.08
   4  -1   1   30.03    4.70
   4  -1   2  140.15   11.78
   4  -1   3   63.29    8.00
   4  -1   4   38.02    9.28
   4  -1   5   10.10    4.18
   4  -1   6    2.82   12.75
   4  -1   7   86.68   11.92
   4  -1   8   71.72   13.94
   4  -1   9   99.18   17.08
   4  -1  10   20.68   12.54
   4   1 -12    1.14   22.93
   4   1 -11    5.16   22.01
   4   1 -10   14.60   14.35
   4   1  -9   64.55    8.83
   4   1  -8   85.86   19.83
   4   1  -7  139.50   19.40
   4   1  -6   57.71   11.21
   4   1  -5   14.83   10.67
   4   1  -4    2.04    9.07
   4   1  -3   22.74    8.25
   4   1  -2   56.69   10.32
   4   1  -1  111.98   11.22
   4   1   0   98.97   11.02
   4   1   1    4.80    3.88
   4   1   2  170.35    8.15
   4   1   3   59.95    8.41
   4   1   4   40.10    8.16
   4   1   5    8.40    6.42
   4   1   6    2.48    5.83
   4   1   7  141.19   16.46
   4   1   8   64.25   13.50
   4   1   9   47.98   12.81
   4   1  10    9.84   10.72
   4   2 -11    0.73   19.28
   4   2 -10    9.74   15.36
   4   2  -9   29.84    9.03
   4   2  -8   31.67    8.24
   4   2  -7   77.33    9.41
   4   2  -6  144.59    8.67
   4   2  -5   56.31    7.35
   4   2  -4   58.44   12.98
   4   2  -3   30.97    4.59
   4   2  -2   28.96    4.03
   4   2  -1   54.66   11.81
   4   2   0   45.01    4.85
   4   2   1    5.24    9.10
   4   2   2  267.92   14.79
   4   2   3   97.83    8.93
   4   2   4   87.30    7.58
   4   2   5   14.60    7.14
   4   2   6    7.00    7.24
   4   2   7   62.02   14.50
   4   2   8   45.72   15.09
   4   2   9   31.56   15.38
   4   2  10   29.34   16.40
   4   3 -10   22.57   12.50
   4   3  -9   42.88   13.58
   4   3  -8   75.45   14.23
   4   3  -7   95.02   14.37
   4   3  -6  194.95   18.24
   4   3  -5   97.42   12.74
   4   3  -4   57.25   14.15
   4   3  -3  106.02   13.24
   4   3  -2  124.64   14.61
   4   3  -1  111.58   13.25
   4   3   0   88.53   13.74
   4   3   1    3.95    5.71
   4   3   2  354.95   12.79
   4   3   3  164.45    9.31
   4   3   4  168.90   10.73
   4   3   5   72.17    8.17
   4   3   6   45.91    8.69
   4   3   7  150.89   10.51
   4   3   8   92.68   17.38
   4   3   9   55.23   16.14
   4   3  10   51.22   17.56
   4   4  -9   34.64   13.75
   4   4  -8   44.51   13.60
   4   4  -7   25.27   13.14
   4   4  -6   32.53   12.51
   4   4  -5    3.96   12.14
   4   4  -4    7.43   11.75
   4   4  -3   29.41   12.88
   4   4  -2   59.37   12.88
   4   4  -1   59.84   13.65
   4   4   0   44.17    6.41
   4   4   1    8.61    5.80
   4   4   2  147.84    8.97
   4   4   3   21.14    7.16
   4   4   4   18.19    7.17
   4   4   5    7.04    7.40
   4   4   6   12.02    8.61
   4   4   7   45.20    9.47
   4   4   8   42.39   14.29
   4   4   9   29.86   15.72
   4   4  10   25.72   17.17
   4   5  -9    5.88   13.44
   4   5  -8   12.06   13.52
   4   5  -7   30.94   13.97
   4   5  -6   95.97   17.21
   4   5  -5   75.55   14.86
   4   5  -4   17.66   13.66
   4   5  -3   41.11   13.96
   4   5  -2   21.38   13.18
   4   5  -1   10.35   12.66
   4   5   0    5.69   12.00
   4   5   1    5.09   12.21
   4   5   2  189.79   17.96
   4   5   3   89.03   15.36
   4   5   4   74.92   14.32
   4   5   5   23.38   12.76
   4   5   6    1.38   12.60
   4   5   7   21.23   13.58
   4   6  -8   22.54   14.44
   4   6  -7   35.52   15.73
   4   6  -6   41.53   14.53
   4   6  -5    6.71   13.74
   4   6  -4    6.74   13.11
   4   6  -3   28.59   14.62
   4   6  -2   48.74   14.36
   4   6  -1   40.75   15.52
   4   6   0   39.50   14.22
   4   6   1    0.26   13.95
   4   6   2  113.56   17.22
   4   6   3   19.45   14.42
   4   6   4    9.40   13.53
   4   6   5   13.42   15.44
   4   6   6   15.09   14.77
   4   6   7   35.97   16.02
   4   7  -5   29.23   16.27
   4   7  -4    6.41   15.77
   4   7  -3   44.99   17.11
   4   7  -2   41.06   16.81
   4   7  -1   19.34   14.71
   4   7   0    9.89   15.52
   4   7   1    0.23   15.13
   4   7   2   99.39   18.99
   4   7   3   42.17   17.24
   5  -7  -2    8.64   15.77
   5  -7  -1   20.26   16.09
   5  -7   0   11.89   15.46
   5  -7   1   17.98   15.06
   5  -7   2   33.50   15.78
   5  -6  -6   58.29   17.87
   5  -6  -5    9.84   15.40
   5  -6  -4   38.03   15.40
   5  -6  -3   37.08   15.83
   5  -6  -2   27.68   15.95
   5  -6  -1   49.47   14.64
   5  -6   0   28.89   14.45
   5  -6   1    6.09   13.10
   5  -6   2   68.43   14.36
   5  -6   3   27.45   13.49
   5  -6   5    9.26   15.30
   5  -6   6   14.31   16.97
   5  -5  -8   38.29   17.70
   5  -5  -7   53.27   16.64
   5  -5  -6  133.44   19.38
   5  -5  -5   42.63   15.02
   5  -5  -4   23.02   15.39
   5  -5  -3   24.10   13.97
   5  -5  -2    5.26   13.66
   5  -5  -1    3.95   13.77
   5  -5   0    1.35   12.17
   5  -5   1    2.29   12.17
   5  -5   2  119.44   16.31
   5  -5   3   64.27   13.61
   5  -5   4   31.05   12.34
   5  -5   5    6.70   14.97
   5  -5   6    7.43   14.98
   5  -5   7   17.48   16.47
   5  -4 -10   26.88   16.64
   5  -4  -9   28.19   16.90
   5  -4  -8   39.26   15.67
   5  -4  -7   40.60   15.49
   5  -4  -6   77.12   16.03
   5  -4  -5    2.87   14.15
   5  -4  -4   15.35   13.29
   5  -4  -3   24.73   14.06
   5  -4  -2   42.87   13.69
   5  -4  -1   52.49   14.06
   5  -4   0   26.34   11.71
   5  -4   1    3.85   11.27
   5  -4   2   98.01   13.34
   5  -4   3    6.49   11.21
   5  -4   4    3.64   10.89
   5  -4   5    2.63   14.08
   5  -4   6   11.96   14.91
   5  -4   7   75.24   18.33
   5  -3 -11   72.17   17.11
   5  -3 -10   54.46   17.05
   5  -3  -9   64.78   15.73
   5  -3  -8   62.25   16.55
   5  -3  -7   37.43   14.36
   5  -3  -6  209.45   19.72
   5  -3  -5  127.09   16.02
   5  -3  -4   88.20   15.54
   5  -3  -3  111.55   15.45
   5  -3  -2   79.95   14.34
   5  -3  -1   61.62   13.45
   5  -3   0   52.53   12.97
   5  -3   1    4.71   11.02
   5  -3   2  300.16   18.28
   5  -3   3  137.77   13.93
   5  -3   4   72.89   11.67
   5  -3   5   18.67    8.46
   5  -3   6    6.18   14.50
   5  -3   7   74.40   18.35
   5  -3   8   29.67   18.48
   5  -2 -11   48.20   15.32
   5  -2 -10   38.47   14.52
   5  -2  -9   37.96   14.58
   5  -2  -8   50.17   13.81
   5  -2  -7   32.42   13.09
   5  -2  -6  144.84   16.01
   5  -2  -5   65.03   14.98
   5  -2  -4   32.14   12.03
   5  -2  -3   61.52   13.10
   5  -2  -2   56.57   12.94
   5  -2  -1   29.19   11.52
   5  -2   0   16.10   10.23
   5  -2   1    0.68   10.16
   5  -2   2  239.53   16.09
   5  -2   3   57.98   11.81
   5  -2   4   31.48   10.06
   5  -2   5   14.06    7.62
   5  -2   6   18.14   15.60
   5  -2   7   66.24   17.16
   5  -2   8    0.77   16.38
   5  -1 -11   80.20   16.23
   5  -1 -10   49.79   13.44
   5  -1  -9   30.06   11.91
   5  -1  -8   38.18   12.70
   5  -1  -7   16.11   10.87
   5  -1  -6   67.92   13.86
   5  -1  -5   28.62   11.60
   5  -1  -4   17.49   11.55
   5  -1  -3   94.08   12.86
   5  -1  -2  101.96   13.33
   5  -1  -1   49.47   11.55
   5  -1   0   42.75   10.72
   5  -1   1   26.69   10.31
   5  -1   2  217.26   15.11
   5  -1   3   28.00   10.40
   5  -1   4    7.03    6.37
   5  -1   5   17.05    6.57
   5  -1   6    2.49   13.91
   5  -1   7   43.29   13.04
   5  -1   8   30.80   14.77
   5   1 -10   57.48   13.86
   5   1  -9   42.57   13.23
   5   1  -8   33.45    8.33
   5   1  -7   37.49   13.35
   5   1  -6   51.71   13.10
   5   1  -5   28.71   13.58
   5   1  -4    5.98    9.68
   5   1  -3  140.44   15.59
   5   1  -2  113.00   14.04
   5   1  -1   48.13   11.73
   5   1   0   43.93   11.06
   5   1   1   35.44   10.49
   5   1   2  249.23   16.69
   5   1   3   33.95   10.33
   5   1   4   12.52    8.34
   5   1   5   20.14    7.81
   5   1   6   24.64   10.29
   5   1   7   31.95   13.80
   5   1   8   32.90   13.67
   5   1   9   69.79   19.14
   5   2 -10   15.59   13.66
   5   2  -9   20.41   14.39
   5   2  -8   12.41   13.87
   5   2  -7   60.64   15.04
   5   2  -6   46.18   13.72
   5   2  -5   42.69   13.53
   5   2  -4   30.32   13.80
   5   2  -3  162.86   16.31
   5   2  -2  103.04   14.81
   5   2  -1    4.61   11.53
   5   2   0   20.06   11.77
   5   2   1   19.95   11.40
   5   2   2  213.17   17.29
   5   2   3   56.50    8.41
   5   2   4   27.87    8.63
   5   2   5   15.46    7.56
   5   2   6   11.88    8.00
   5   2   7    6.95   13.88
   5   2   8    0.03   14.74
   5   2   9   29.03   17.04
   5   3 -10   19.81   14.95
   5   3  -9   36.53   14.95
   5   3  -8   35.91   15.06
   5   3  -7  141.44   17.39
   5   3  -6   93.08   16.42
   5   3  -5  115.41   17.01
   5   3  -4   62.06   13.64
   5   3  -3  197.12   19.45
   5   3  -2  103.64   14.95
   5   3  -1   48.45   13.32
   5   3   0   38.32   13.40
   5   3   1   56.79   13.31
   5   3   2  315.65   13.25
   5   3   3  121.90   10.82
   5   3   4   64.81    9.31
   5   3   5   38.09    9.20
   5   3   6   40.67    9.27
   5   3   7   30.77   15.28
   5   3   8   35.08   16.03
   5   3   9   66.75   18.48
   5   4 -10   26.29   16.58
   5   4  -9   39.18   16.19
   5   4  -8    2.72   14.20
   5   4  -7   43.71   15.65
   5   4  -6   11.73   13.88
   5   4  -5   11.08   13.39
   5   4  -4   27.62   15.04
   5   4  -3  131.17   17.25
   5   4  -2   82.91   15.70
   5   4  -1   37.77   13.54
   5   4   0   33.94   14.21
   5   4   1   46.34   13.73
   5   4   2   84.97   15.44
   5   4   3   15.29   11.63
   5   4   4   22.55   13.21
   5   4   5   12.13   12.55
   5   4   6   25.42   12.85
   5   5  -8   14.80   15.15
   5   5  -7   49.02   17.06
   5   5  -6   29.52   16.21
   5   5  -5   53.74   17.20
   5   5  -4   16.80   14.77
   5   5  -3   91.52   17.57
   5   5  -2   16.80   14.70
   5   5  -1    1.32   13.65
   5   5   0    1.85   13.21
   5   5   1   18.79   14.35
   5   5   2   73.25   16.31
   5   5   3   46.55   14.67
   5   5   4   45.72   14.83
   5   5   5    6.43   13.46
   5   5   6    7.28   14.06
   5   6  -4   24.57   17.55
   5   6  -3   78.33   17.22
   5   6  -2   65.37   17.82
   5   6  -1   43.66   15.80
   5   6   0   51.65   17.00
   5   6   1   29.97   15.50
   5   6   2   47.08   16.06
   5   6   3   45.71   16.90
   5   6   4   35.28   16.29
   6  -6  -2   40.47   17.64
   6  -6  -1   31.00   16.28
   6  -6   0   24.21   16.31
   6  -6   1   31.96   14.92
   6  -6   2   67.65   17.51
   6  -5  -5   13.53   16.14
   6  -5  -4    1.07   15.82
   6  -5  -3   69.83   18.84
   6  -5  -2   16.21   15.29
   6  -5  -1    0.29   14.81
   6  -5   0    1.35   13.73
   6  -5   1    5.74   13.84
   6  -5   2   78.20   17.04
   6  -5   3   40.82   14.67
   6  -4  -7   33.44   17.05
   6  -4  -6   34.25   16.53
   6  -4  -5   22.36   14.93
   6  -4  -4   35.78   16.50
   6  -4  -3  114.59   16.70
   6  -4  -2  104.22   18.17
   6  -4  -1   73.00   15.25
   6  -4   0   55.64   15.53
   6  -4   1   50.65   14.54
   6  -4   2   87.52   15.81
   6  -4   3   26.63   13.59
   6  -4   5   29.90   17.27
   6  -3  -9   34.71   16.56
   6  -3  -8   31.90   16.87
   6  -3  -7   88.26   17.22
   6  -3  -6   53.07   15.98
   6  -3  -5   63.11   16.79
   6  -3  -4   73.21   14.98
   6  -3  -3  137.52   18.77
   6  -3  -2   81.38   15.12
   6  -3  -1   43.16   15.41
   6  -3   0   54.69   13.51
   6  -3   1   77.94   15.27
   6  -3   2  139.46   16.37
   6  -3   3   97.27   14.27
   6  -3   4   73.26   12.71
   6  -3   5   60.27   18.28
   6  -3   6   50.92   18.07
   6  -2 -10   10.94   16.22
   6  -2  -9   27.79   16.79
   6  -2  -8   22.20   15.85
   6  -2  -7   45.70   14.98
   6  -2  -6   31.24   14.53
   6  -2  -5   18.02   13.63
   6  -2  -4   24.95   13.13
   6  -2  -3   94.85   15.58
   6  -2  -2   44.25   14.82
   6  -2  -1   50.36   13.18
   6  -2   0   29.03   12.76
   6  -2   1   73.82   13.50
   6  -2   2   86.00   14.44
   6  -2   3   33.64   11.97
   6  -2   4   26.00   11.28
   6  -2   5   19.89   15.75
   6  -2   6   23.53   16.70
   6  -1 -10   27.54   14.81
   6  -1  -9   41.51   15.96
   6  -1  -8   11.39   14.88
   6  -1  -7   37.27   14.34
   6  -1  -6   29.46   13.37
   6  -1  -5   60.89   14.78
   6  -1  -4   55.97   13.75
   6  -1  -3  118.91   16.83
   6  -1  -2   91.64   14.44
   6  -1  -1  113.35   15.16
   6  -1   0  102.99   13.80
   6  -1   1   94.34   15.16
   6  -1   2   73.82   13.98
   6  -1   3   43.75   12.12
   6  -1   4   60.35   11.85
   6  -1   5   50.22   15.56
   6  -1   6   59.93   15.51
   6   1  -8   33.93   15.42
   6   1  -7   57.43   14.84
   6   1  -6   12.43   11.83
   6   1  -5   21.00   12.50
   6   1  -4   48.49   13.12
   6   1  -3   84.23   14.93
   6   1  -2  122.42   15.81
   6   1  -1  133.38   16.46
   6   1   0  121.20   15.73
   6   1   1   53.70   12.88
   6   1   2   48.11   12.90
   6   1   3   46.59   12.29
   6   1   4   79.38   11.74
   6   1   5   24.40   13.57
   6   1   6   65.82   16.39
   6   1   7   59.14   18.87
   6   2  -9   12.90   16.43
   6   2  -8    2.58   16.08
   6   2  -7    2.04   15.33
   6   2  -6   25.09   15.59
   6   2  -5   16.81   14.61
   6   2  -4   54.03   15.68
   6   2  -3   75.17   15.38
   6   2  -2   52.18   14.99
   6   2  -1   45.61   13.75
   6   2   0   26.61   14.34
   6   2   1   12.12   12.85
   6   2   2   11.79   12.63
   6   2   3   34.61    9.40
   6   2   4   79.65   10.36
   6   2   5   10.76    9.29
   6   2   6   29.60   16.05
   6   2   7   21.50   17.42
   6   3  -8   36.07   17.23
   6   3  -7   24.84   16.89
   6   3  -6   70.55   17.80
   6   3  -5   34.81   16.05
   6   3  -4   49.77   16.68
   6   3  -3   70.10   16.02
   6   3  -2   72.48   16.07
   6   3  -1   57.02   15.72
   6   3   0   87.93   16.51
   6   3   1   66.20   16.05
   6   3   2   52.24   10.02
   6   3   3   48.18   10.48
   6   3   4   84.23   11.39
   6   3   5   11.63    9.87
   6   3   6   45.38   17.03
   6   3   7   55.30   18.71
   6   4  -6   35.55   17.78
   6   4  -5   42.19   17.63
   6   4  -4   48.96   16.90
   6   4  -3   55.16   17.69
   6   4  -2   82.57   18.07
   6   4  -1   60.29   16.79
   6   4   0   96.02   17.39
   6   4   1   34.56   15.81
   6   4   2   35.70   14.67
   6   4   3   51.18   16.22
   6   4   4   60.05   15.99
   6   4   5   18.96   14.53
   6   5   0   18.15   16.76
   6   5   1    2.81   15.74
   7  -5   2    0.56   15.73
   7  -4  -2   39.06   16.60
   7  -4  -1   47.52   16.69
   7  -4   0   44.59   15.91
   7  -4   1   36.12   16.28
   7  -4   2   15.28   14.56
   7  -3  -4   33.47   17.44
   7  -3  -3    4.32   16.25
   7  -3  -2   41.67   16.40
   7  -3  -1   36.31   16.16
   7  -3   0   35.39   15.77
   7  -3   1   27.43   15.37
   7  -3   2   16.03   14.09
   7  -3   3   32.03   14.92
   7  -2  -5   10.60   18.03
   7  -2  -4    5.18   15.67
   7  -2  -3    7.08   15.36
   7  -2  -2   24.55   15.32
   7  -2  -1   10.76   14.27
   7  -2   0   31.23   15.11
   7  -2   1   13.44   13.81
   7  -2   2   15.52   14.08
   7  -2   3   22.19   13.61
   7  -1  -5   46.00   17.26
   7  -1  -4   16.37   13.59
   7  -1  -3   15.35   14.59
   7  -1  -2   33.77   14.61
   7  -1  -1   27.06   14.28
   7  -1   0   51.38   13.80
   7  -1   1   15.52   15.43
   7  -1   2   29.89    8.75
   7  -1   3   18.58   13.09
   7   1  -5   65.12   19.02
   7   1  -4   20.67   14.27
   7   1  -3   10.32   15.50
   7   1  -2   15.68   11.83
   7   1  -1   22.77   14.43
   7   1   0   53.33   16.16
   7   1   1   24.50   14.90
   7   1   2   39.05   14.86
   7   1   3   19.47    9.63
   7   1   4   25.40   15.89
   7   2  -4    1.16   16.23
   7   2  -3    4.48   16.07
   7   2  -2    9.16   15.03
   7   2  -1    0.27   14.50
   7   2   0   29.93   15.57
   7   2   1    5.80   14.92
   7   2   2    9.41   10.09
   7   2   3   13.80   10.07
   7   2   4   15.75   11.01
   7   3  -1    3.49   16.57
   7   3   0   68.29   17.76
   7   3   1   39.91   16.96
   7   3   2   31.90   15.97
   7   3   3   24.67   15.38
   7   3   4   10.53   15.76
   0   0   0    0.00    0.00
;
_shelx_hkl_checksum              78606
_shelx_shelxl_version_number     2014/7
_olex2_submission_special_instructions 'No special instructions were received'
loop_
_space_group_symop_operation_xyz
'x, y, z'
loop_
_atom_site_label
_atom_site_type_symbol
_atom_site_fract_x
_atom_site_fract_y
_atom_site_fract_z
_atom_site_U_iso_or_equiv
_atom_site_adp_type
_atom_site_occupancy
_atom_site_site_symmetry_order
_atom_site_calc_flag
_atom_site_refinement_flags_posn
_atom_site_refinement_flags_adp
Co1 Co 0.00022(14) 0.00009(13) 0.00018(12) 0.0121(3) Uani 1 1 d . .
O1 O 0.0762(11) 0.0035(7) 0.1970(5) 0.0146(14) Uani 1 1 d . U
N1 N -0.0025(16) 0.3180(10) -0.0044(9) 0.0113(17) Uani 1 1 d . U
C11 C -0.2298(14) 0.3785(10) -0.0087(8) 0.0207(18) Uani 1 1 d . U
H11A H -0.3030 0.3206 0.0606 0.025 Uiso 1 1 calc R .
H11B H -0.3143 0.3376 -0.0871 0.025 Uiso 1 1 calc R .
N2 N -0.0010(17) 0.6859(11) -0.0067(9) 0.0149(19) Uani 1 1 d . U
C6 C -0.0011(15) 0.0258(11) 0.4435(9) 0.019(2) Uani 1 1 d . U
H6 H 0.1419 0.0583 0.4210 0.022 Uiso 1 1 calc R .
C5 C -0.0403(17) 0.0156(13) 0.5685(10) 0.029(2) Uani 1 1 d . U
H5 H 0.0788 0.0403 0.6302 0.035 Uiso 1 1 calc R .
O4 O -0.1383(11) 0.0046(8) 0.8198(6) 0.0190(15) Uani 1 1 d . U
C4 C -0.2560(14) -0.0313(10) 0.6061(8) 0.0178(17) Uani 1 1 d . U
O3 O -0.4953(11) -0.0762(9) 0.7653(6) 0.0384(16) Uani 1 1 d . U
C8 C -0.3011(13) -0.0335(10) 0.7404(8) 0.0165(16) Uani 1 1 d . U
O2 O -0.2770(9) -0.0231(7) 0.1279(5) 0.0169(12) Uani 1 1 d . U
C7 C -0.1199(13) -0.0103(10) 0.2177(7) 0.0133(16) Uani 1 1 d . U
C1 C -0.1769(13) -0.0129(11) 0.3522(8) 0.0166(17) Uani 1 1 d . U
C3 C -0.4319(14) -0.0665(10) 0.5116(7) 0.0182(17) Uani 1 1 d . U
H3 H -0.5763 -0.0957 0.5332 0.022 Uiso 1 1 calc R .
C2 C -0.3924(13) -0.0581(10) 0.3866(7) 0.0159(17) Uani 1 1 d . U
H2 H -0.5103 -0.0827 0.3243 0.019 Uiso 1 1 calc R .
O1W O 0.3389(9) 0.0255(7) -0.0255(6) 0.0179(12) Uani 1 1 d . U
H1WA H 0.3719 -0.0580 -0.0786 0.027 Uiso 1 1 d GR .
H1WB H 0.4196 0.0085 0.0459 0.027 Uiso 1 1 d GR .
C14 C 0.1454(15) 0.6104(10) 0.1017(8) 0.0202(18) Uani 1 1 d . U
H14A H 0.1012 0.6588 0.1795 0.024 Uiso 1 1 calc R .
H14B H 0.2992 0.6566 0.0946 0.024 Uiso 1 1 calc R .
C9 C 0.1033(15) 0.4062(10) -0.1174(8) 0.0217(19) Uani 1 1 d . U
H9A H 0.2600 0.3785 -0.1117 0.026 Uiso 1 1 calc R .
H9B H 0.0291 0.3506 -0.1945 0.026 Uiso 1 1 calc R .
C13 C 0.1351(15) 0.3996(10) 0.1087(8) 0.0200(18) Uani 1 1 d . U
H13A H 0.2855 0.3560 0.1130 0.024 Uiso 1 1 calc R .
H13B H 0.0696 0.3572 0.1846 0.024 Uiso 1 1 calc R .
C12 C -0.2280(15) 0.5933(11) 0.0006(9) 0.025(2) Uani 1 1 d . U
H12A H -0.3299 0.6409 -0.0674 0.030 Uiso 1 1 calc R .
H12B H -0.2817 0.6260 0.0798 0.030 Uiso 1 1 calc R .
C10 C 0.0853(16) 0.6129(11) -0.1227(8) 0.0234(19) Uani 1 1 d . U
H10A H -0.0147 0.6449 -0.1962 0.028 Uiso 1 1 calc R .
H10B H 0.2318 0.6741 -0.1321 0.028 Uiso 1 1 calc R .
loop_
_atom_site_aniso_label
_atom_site_aniso_U_11
_atom_site_aniso_U_22
_atom_site_aniso_U_33
_atom_site_aniso_U_23
_atom_site_aniso_U_13
_atom_site_aniso_U_12
Co1 0.0123(5) 0.0189(5) 0.0049(4) -0.0019(3) -0.0001(3) 0.0003(3)
O1 0.0144(18) 0.0147(17) 0.0149(18) 0.0006(12) 0.0017(13) 0.0011(12)
N1 0.012(2) 0.012(2) 0.010(2) -0.0001(12) 0.0012(13) 0.0005(13)
C11 0.020(2) 0.021(2) 0.021(2) -0.0002(13) 0.0016(13) 0.0012(13)
N2 0.015(2) 0.015(2) 0.014(2) 0.0005(13) 0.0014(13) 0.0010(13)
C6 0.018(2) 0.019(2) 0.019(2) 0.0002(13) 0.0016(13) 0.0008(13)
C5 0.029(3) 0.030(3) 0.029(3) -0.0004(14) 0.0023(14) 0.0020(14)
O4 0.0183(19) 0.0198(18) 0.0187(19) 0.0000(12) 0.0014(13) 0.0005(13)
C4 0.018(2) 0.018(2) 0.018(2) 0.0002(13) 0.0021(13) 0.0014(13)
O3 0.036(3) 0.046(3) 0.033(3) -0.002(2) 0.004(2) 0.002(2)
C8 0.016(2) 0.017(2) 0.016(2) -0.0005(13) 0.0018(13) 0.0013(13)
O2 0.0182(17) 0.0167(16) 0.0160(16) -0.0001(12) 0.0022(12) 0.0018(12)
C7 0.014(2) 0.0129(19) 0.0134(19) -0.0002(13) 0.0014(13) 0.0010(13)
C1 0.016(2) 0.017(2) 0.017(2) 0.0005(13) 0.0022(13) 0.0016(13)
C3 0.018(2) 0.018(2) 0.018(2) -0.0006(13) 0.0020(13) 0.0007(13)
C2 0.016(2) 0.017(2) 0.015(2) -0.0004(13) 0.0017(13) 0.0004(13)
O1W 0.018(2) 0.017(2) 0.019(2) -0.0040(17) -0.0002(18) 0.0039(17)
C14 0.020(2) 0.020(2) 0.020(2) -0.0007(13) 0.0005(13) 0.0018(13)
C9 0.022(2) 0.022(2) 0.021(2) 0.0003(13) 0.0022(13) 0.0012(13)
C13 0.020(2) 0.020(2) 0.020(2) -0.0012(13) 0.0012(13) 0.0012(13)
C12 0.024(2) 0.025(2) 0.025(2) 0.0000(13) 0.0025(14) 0.0012(13)
C10 0.024(2) 0.023(2) 0.024(2) -0.0003(13) 0.0031(14) 0.0013(13)
loop_
_atom_type_symbol
_atom_type_description
_atom_type_scat_dispersion_real
_atom_type_scat_dispersion_imag
_atom_type_scat_source
C C 0.0033 0.0016 'International Tables Vol C Tables 4.2.6.8 and 6.1.1.4'
H H 0.0000 0.0000 'International Tables Vol C Tables 4.2.6.8 and 6.1.1.4'
Co Co 0.3494 0.9721 'International Tables Vol C Tables 4.2.6.8 and 6.1.1.4'
N N 0.0061 0.0033 'International Tables Vol C Tables 4.2.6.8 and 6.1.1.4'
O O 0.0106 0.0060 'International Tables Vol C Tables 4.2.6.8 and 6.1.1.4'
loop_
_geom_angle_atom_site_label_1
_geom_angle_atom_site_label_2
_geom_angle_atom_site_label_3
_geom_angle
_geom_angle_site_symmetry_1
_geom_angle_site_symmetry_3
O1 Co1 N1 90.5(3) . .
O1 Co1 N2 92.6(3) . 1_545
O1 Co1 O2 59.8(2) . .
N2 Co1 N1 176.9(5) 1_545 .
N2 Co1 O2 90.2(3) 1_545 .
O4 Co1 O1 168.0(2) 1_554 .
O4 Co1 N1 87.2(3) 1_554 .
O4 Co1 N2 89.8(3) 1_554 1_545
O4 Co1 O2 108.5(2) 1_554 .
O4 Co1 O1W 100.8(2) 1_554 .
O2 Co1 N1 91.5(3) . .
O1W Co1 O1 90.8(2) . .
O1W Co1 N1 88.8(3) . .
O1W Co1 N2 91.0(3) . 1_545
O1W Co1 O2 150.6(2) . .
C7 O1 Co1 93.7(5) . .
C11 N1 Co1 111.1(6) . .
C11 N1 C9 107.9(7) . .
C11 N1 C13 109.7(7) . .
C9 N1 Co1 112.7(5) . .
C13 N1 Co1 110.2(6) . .
C13 N1 C9 105.1(8) . .
N1 C11 H11A 109.5 . .
N1 C11 H11B 109.5 . .
N1 C11 C12 110.6(6) . .
H11A C11 H11B 108.1 . .
C12 C11 H11A 109.5 . .
C12 C11 H11B 109.5 . .
C14 N2 Co1 111.0(6) . 1_565
C14 N2 C12 106.4(7) . .
C14 N2 C10 105.4(8) . .
C12 N2 Co1 112.4(6) . 1_565
C12 N2 C10 107.0(8) . .
C10 N2 Co1 114.0(6) . 1_565
C5 C6 H6 120.5 . .
C5 C6 C1 119.0(8) . .
C1 C6 H6 120.5 . .
C6 C5 H5 119.0 . .
C6 C5 C4 122.0(8) . .
C4 C5 H5 119.0 . .
C8 O4 Co1 149.5(6) . 1_556
C5 C4 C8 122.1(8) . .
C3 C4 C5 117.8(8) . .
C3 C4 C8 120.0(7) . .
O4 C8 C4 116.8(8) . .
O3 C8 O4 125.1(8) . .
O3 C8 C4 118.0(7) . .
C7 O2 Co1 85.3(4) . .
O1 C7 O2 121.2(7) . .
O1 C7 C1 119.2(7) . .
O2 C7 C1 119.5(7) . .
C6 C1 C7 116.3(7) . .
C6 C1 C2 120.2(7) . .
C2 C1 C7 123.5(7) . .
C4 C3 H3 119.9 . .
C2 C3 C4 120.2(8) . .
C2 C3 H3 119.9 . .
C1 C2 H2 119.6 . .
C3 C2 C1 120.7(7) . .
C3 C2 H2 119.6 . .
Co1 O1W H1WA 111.0 . .
Co1 O1W H1WB 110.2 . .
H1WA O1W H1WB 108.2 . .
N2 C14 H14A 108.9 . .
N2 C14 H14B 108.9 . .
N2 C14 C13 113.5(7) . .
H14A C14 H14B 107.7 . .
C13 C14 H14A 108.9 . .
C13 C14 H14B 108.9 . .
N1 C9 H9A 109.3 . .
N1 C9 H9B 109.3 . .
H9A C9 H9B 108.0 . .
C10 C9 N1 111.5(6) . .
C10 C9 H9A 109.3 . .
C10 C9 H9B 109.3 . .
N1 C13 C14 110.2(6) . .
N1 C13 H13A 109.6 . .
N1 C13 H13B 109.6 . .
C14 C13 H13A 109.6 . .
C14 C13 H13B 109.6 . .
H13A C13 H13B 108.1 . .
C11 C12 H12A 109.1 . .
C11 C12 H12B 109.1 . .
N2 C12 C11 112.3(7) . .
N2 C12 H12A 109.1 . .
N2 C12 H12B 109.1 . .
H12A C12 H12B 107.9 . .
N2 C10 H10A 109.2 . .
N2 C10 H10B 109.2 . .
C9 C10 N2 112.2(7) . .
C9 C10 H10A 109.2 . .
C9 C10 H10B 109.2 . .
H10A C10 H10B 107.9 . .
loop_
_geom_bond_atom_site_label_1
_geom_bond_atom_site_label_2
_geom_bond_distance
_geom_bond_site_symmetry_2
Co1 O1 2.099(6) .
Co1 N1 2.257(8) .
Co1 N2 2.231(8) 1_545
Co1 O4 2.015(6) 1_554
Co1 O2 2.252(5) .
Co1 O1W 2.077(5) .
O1 C7 1.218(9) .
N1 C11 1.453(13) .
N1 C9 1.525(13) .
N1 C13 1.492(13) .
C11 H11A 0.9700 .
C11 H11B 0.9700 .
C11 C12 1.528(10) .
N2 Co1 2.231(8) 1_565
N2 C14 1.492(13) .
N2 C12 1.485(14) .
N2 C10 1.499(13) .
C6 H6 0.9300 .
C6 C5 1.375(11) .
C6 C1 1.378(11) .
C5 H5 0.9300 .
C5 C4 1.413(12) .
O4 Co1 2.015(6) 1_556
O4 C8 1.244(10) .
C4 C8 1.482(11) .
C4 C3 1.396(11) .
O3 C8 1.240(10) .
O2 C7 1.273(9) .
C7 C1 1.506(11) .
C1 C2 1.397(11) .
C3 H3 0.9300 .
C3 C2 1.376(10) .
C2 H2 0.9300 .
O1W H1WA 0.8705 .
O1W H1WB 0.8702 .
C14 H14A 0.9700 .
C14 H14B 0.9700 .
C14 C13 1.494(10) .
C9 H9A 0.9700 .
C9 H9B 0.9700 .
C9 C10 1.477(11) .
C13 H13A 0.9700 .
C13 H13B 0.9700 .
C12 H12A 0.9700 .
C12 H12B 0.9700 .
C10 H10A 0.9700 .
C10 H10B 0.9700 .
loop_
_geom_torsion_atom_site_label_1
_geom_torsion_atom_site_label_2
_geom_torsion_atom_site_label_3
_geom_torsion_atom_site_label_4
_geom_torsion
_geom_torsion_site_symmetry_1
Co1 O1 C7 O2 1.0(7) .
Co1 O1 C7 C1 -179.2(6) .
Co1 N1 C11 C12 174.8(5) .
Co1 N1 C9 C10 176.1(5) .
Co1 N1 C13 C14 176.4(5) .
Co1 N2 C14 C13 174.7(5) 1_565
Co1 N2 C12 C11 178.0(5) 1_565
Co1 N2 C10 C9 174.2(6) 1_565
Co1 O4 C8 C4 -162.9(7) 1_556
Co1 O4 C8 O3 15.6(16) 1_556
Co1 O2 C7 O1 -0.9(7) .
Co1 O2 C7 C1 179.2(6) .
O1 C7 C1 C6 8.3(10) .
O1 C7 C1 C2 -169.5(7) .
N1 C11 C12 N2 8.1(8) .
N1 C9 C10 N2 8.3(9) .
C11 N1 C9 C10 53.1(9) .
C11 N1 C13 C14 -61.0(9) .
N2 C14 C13 N1 6.2(8) .
C6 C5 C4 C8 -177.0(8) .
C6 C5 C4 C3 -0.4(12) .
C6 C1 C2 C3 -0.7(11) .
C5 C6 C1 C7 -176.5(7) .
C5 C6 C1 C2 1.3(11) .
C5 C4 C8 O4 -1.3(11) .
C5 C4 C8 O3 180.0(7) .
C5 C4 C3 C2 1.1(10) .
C4 C3 C2 C1 -0.5(10) .
C8 C4 C3 C2 177.7(7) .
O2 C7 C1 C6 -171.9(6) .
O2 C7 C1 C2 10.4(10) .
C7 C1 C2 C3 177.0(7) .
C1 C6 C5 C4 -0.7(12) .
C3 C4 C8 O4 -177.8(7) .
C3 C4 C8 O3 3.5(11) .
C14 N2 C12 C11 -60.2(9) .
C14 N2 C10 C9 52.1(10) .
C9 N1 C11 C12 -61.3(9) .
C9 N1 C13 C14 54.7(9) .
C13 N1 C11 C12 52.7(9) .
C13 N1 C9 C10 -63.8(9) .
C12 N2 C14 C13 52.1(9) .
C12 N2 C10 C9 -60.9(9) .
C10 N2 C14 C13 -61.3(9) .
C10 N2 C12 C11 52.2(9) .
loop_
_smtbx_masks_void_nr
_smtbx_masks_void_average_x
_smtbx_masks_void_average_y
_smtbx_masks_void_average_z
_smtbx_masks_void_volume
_smtbx_masks_void_count_electrons
1 -0.777 0.470 0.495 135.5 50.6
