#------------------------------------------------------------------------------
#$Date: 2019-11-24 04:12:18 +0200 (Sun, 24 Nov 2019) $
#$Revision: 236652 $
#$URL: file:///home/coder/svn-repositories/cod/cif/8/00/03/8000361.cif $
#------------------------------------------------------------------------------
#
# This file is available in the Crystallography Open Database (COD),
# http://www.crystallography.net/
#
# All data on this site have been placed in the public domain by the
# contributors.
#
data_8000361
loop_
_publ_author_name
'Andrzejewski, Micha\/l'
'Katrusiak, Andrzej'
_publ_section_title
;
 Piezochromic Porous Metal-Organic Framework.
;
_journal_issue                   1
_journal_name_full               'The journal of physical chemistry letters'
_journal_page_first              279
_journal_page_last               284
_journal_paper_doi               10.1021/acs.jpclett.6b02458
_journal_volume                  8
_journal_year                    2017
_chemical_formula_moiety         'C14 H18 Co N2 O5'
_chemical_formula_sum            'C14 H18 Co N2 O5'
_chemical_formula_weight         353.23
_chemical_name_common            AMU1
_chemical_name_systematic
;
Co(1,4-benzenedicarboxylate)(1,4-diazabicyclo[2.2.2]octane)H2O
;
_space_group_crystal_system      triclinic
_space_group_IT_number           1
_space_group_name_Hall           'P 1'
_space_group_name_H-M_alt        'P 1'
_atom_sites_solution_hydrogens   mixed
_atom_sites_solution_primary     direct
_audit_creation_date             2016-07-12
_audit_creation_method
;
Olex2 1.2
(compiled 2016.02.19 svn.r3266 for OlexSys, GUI svn.r5155)
;
_cell_angle_alpha                89.559(5)
_cell_angle_beta                 95.237(6)
_cell_angle_gamma                92.593(6)
_cell_formula_units_Z            1
_cell_length_a                   6.0709(5)
_cell_length_b                   7.0907(5)
_cell_length_c                   10.6664(7)
_cell_measurement_reflns_used    3706
_cell_measurement_temperature    220(2)
_cell_measurement_theta_max      58.18
_cell_measurement_theta_min      5.75
_cell_volume                     456.77(6)
_computing_molecular_graphics    'Olex2 (Dolomanov et al., 2009)'
_computing_publication_material  'Olex2 (Dolomanov et al., 2009)'
_computing_structure_refinement  'ShelXL (Sheldrick, 2015)'
_computing_structure_solution    'ShelXS (Sheldrick, 2008)'
_diffrn_ambient_temperature      220(2)
_diffrn_measured_fraction_theta_full 0.915
_diffrn_measured_fraction_theta_max 0.817
_diffrn_measurement_device_type  'multiwire proportional'
_diffrn_measurement_method       'phi and omega scans'
_diffrn_radiation_monochromator  graphite
_diffrn_radiation_type           MoK\a
_diffrn_radiation_wavelength     0.71073
_diffrn_reflns_av_R_equivalents  0.0932
_diffrn_reflns_av_unetI/netI     0.1538
_diffrn_reflns_Laue_measured_fraction_full 0.915
_diffrn_reflns_Laue_measured_fraction_max 0.817
_diffrn_reflns_limit_h_max       8
_diffrn_reflns_limit_h_min       -8
_diffrn_reflns_limit_k_max       9
_diffrn_reflns_limit_k_min       -9
_diffrn_reflns_limit_l_max       13
_diffrn_reflns_limit_l_min       -13
_diffrn_reflns_number            6334
_diffrn_reflns_point_group_measured_fraction_full 0.915
_diffrn_reflns_point_group_measured_fraction_max 0.817
_diffrn_reflns_theta_full        26.000
_diffrn_reflns_theta_max         29.091
_diffrn_reflns_theta_min         2.876
_exptl_absorpt_coefficient_mu    0.960
_exptl_absorpt_correction_T_max  0.908
_exptl_absorpt_correction_T_min  0.891
_exptl_absorpt_correction_type   multi-scan
_exptl_absorpt_process_details
;
Data were collected and reduced by program CrysAlisPro, 
and SCALE3 ABSPACK was used for absorption correction
;
_exptl_crystal_colour            purple
_exptl_crystal_density_diffrn    1.284
_exptl_crystal_description       plate
_exptl_crystal_F_000             183
_exptl_crystal_size_max          0.3
_exptl_crystal_size_mid          0.1
_exptl_crystal_size_min          0.1
_refine_diff_density_max         0.532
_refine_diff_density_min         -0.488
_refine_diff_density_rms         0.096
_refine_ls_abs_structure_details
;
 Refined as a perfect inversion twin.
;
_refine_ls_abs_structure_Flack   0.5
_refine_ls_extinction_method     none
_refine_ls_goodness_of_fit_ref   0.979
_refine_ls_hydrogen_treatment    constr
_refine_ls_matrix_type           full
_refine_ls_number_parameters     200
_refine_ls_number_reflns         3706
_refine_ls_number_restraints     100
_refine_ls_restrained_S_all      0.972
_refine_ls_R_factor_all          0.0874
_refine_ls_R_factor_gt           0.0671
_refine_ls_shift/su_max          0.000
_refine_ls_shift/su_mean         0.000
_refine_ls_structure_factor_coef Fsqd
_refine_ls_weighting_details
'w=1/[\s^2^(Fo^2^)+(0.0758P)^2^] where P=(Fo^2^+2Fc^2^)/3'
_refine_ls_weighting_scheme      calc
_refine_ls_wR_factor_gt          0.1544
_refine_ls_wR_factor_ref         0.1623
_reflns_Friedel_coverage         1.000
_reflns_Friedel_fraction_full    0.915
_reflns_Friedel_fraction_max     0.817
_reflns_number_gt                2681
_reflns_number_total             3706
_reflns_threshold_expression     'I > 2\s(I)'
_cod_data_source_file            jz6b02458_si_004.cif
_cod_data_source_block           220K_P1
_cod_database_code               8000361
_shelx_space_group_comment
;
The symmetry employed for this shelxl refinement is uniquely defined
by the following loop, which should always be used as a source of
symmetry information in preference to the above space-group names.
They are only intended as comments.
;
_olex2_refinement_description
;
1. Fixed Uiso
 At 1.2 times of:
  All C(H) groups, All C(H,H) groups
 At 1.5 times of:
  All O(H,H) groups
2. Restrained distances
 H1WB-H1WA
 1.44 with sigma of 0.02
3. Uiso/Uaniso restraints and constraints
Uanis(N1) \\sim Ueq: with sigma of 0.001 and sigma for terminal atoms of 0.002
Uanis(C9) \\sim Ueq: with sigma of 0.001 and sigma for terminal atoms of 0.002
Uanis(O3) \\sim Ueq: with sigma of 0.001 and sigma for terminal atoms of 0.002
Uanis(C14) \\sim Ueq, Uanis(C13) \\sim Ueq: with sigma of 0.001 and sigma for
terminal atoms of 0.002
Uanis(C6) \\sim Ueq, Uanis(C7) \\sim Ueq, Uanis(C1) \\sim Ueq, Uanis(C3) \\sim
Ueq, Uanis(C2) \\sim Ueq, Uanis(C5) \\sim Ueq, Uanis(C4) \\sim Ueq, Uanis(C8)
\\sim Ueq, Uanis(C12) \\sim Ueq, Uanis(C10) \\sim Ueq, Uanis(C14) \\sim Ueq,
Uanis(C11) \\sim Ueq, Uanis(C13) \\sim Ueq, Uanis(C9) \\sim Ueq: with sigma of
0.001 and sigma for terminal atoms of 0.002
4.a Rotating group:
 O1W(H1WA,H1WB)
4.b Secondary CH2 refined with riding coordinates:
 C12(H12A,H12B), C10(H10A,H10B), C14(H14A,H14B), C11(H11A,H11B), C13(H13A,
 H13B), C9(H9A,H9B)
4.c Aromatic/amide H refined with riding coordinates:
 C6(H6), C3(H3), C2(H2), C5(H5)
;
_shelx_hkl_file
;
  -8  -1  -2   20.01   15.43
  -8  -1  -1   15.71   10.83
  -7  -4  -2   19.16   16.82
  -7  -4  -1    9.18   16.71
  -7  -4   0   23.09   16.13
  -7  -3  -3   19.25   15.86
  -7  -3  -2   30.01   15.11
  -7  -3  -1   28.01   15.64
  -7  -3   0   64.35   17.95
  -7  -3   1   38.65   17.67
  -7  -3   2   14.48   16.54
  -7  -3   3    2.73   17.82
  -7  -2  -3    7.45   13.91
  -7  -2  -2   18.55   14.85
  -7  -2  -1    4.67   14.45
  -7  -2   0   31.92   15.95
  -7  -2   1    0.40   14.76
  -7  -2   2   18.16   15.33
  -7  -2   3    4.97   15.71
  -7  -2   4    0.56   17.45
  -7  -2   5   18.42   17.98
  -7  -1  -3   11.17   10.66
  -7  -1  -2   23.86   11.42
  -7  -1  -1   25.54   14.80
  -7  -1   0   41.57   12.15
  -7  -1   1   11.42    9.80
  -7  -1   2   46.70   15.62
  -7  -1   3   13.48   14.01
  -7  -1   4   21.29   16.70
  -7  -1   5   51.05   16.58
  -7  -1   6   46.88   18.64
  -7   1  -5    6.66    6.12
  -7   1  -4   16.52    8.55
  -7   1  -3   10.77   13.71
  -7   1  -2   12.98   10.85
  -7   1  -1   13.66    9.14
  -7   1   0   47.24   11.78
  -7   1   1   30.57   13.17
  -7   1   2   18.10   10.87
  -7   1   3    0.29   13.12
  -7   1   4   22.80   13.30
  -7   1   5   15.25    9.38
  -7   1   6   14.52   14.80
  -7   2  -5    2.01   14.34
  -7   2  -4   13.54    9.25
  -7   2  -3   10.20    9.09
  -7   2  -2    9.02    8.05
  -7   2  -1   12.99   13.67
  -7   2   0   22.33   14.56
  -7   2   1   28.11   14.26
  -7   2   2   28.68   14.34
  -7   2   3    3.36   13.63
  -7   2   4   17.63   14.30
  -7   2   5   16.42   15.50
  -7   3  -4   43.77   14.16
  -7   3  -3   20.20   13.92
  -7   3  -2   32.95   14.17
  -7   3  -1   46.45   14.63
  -7   3   0   51.66   16.05
  -7   3   1   28.20   14.50
  -7   3   2   42.82   16.29
  -7   3   3   12.13   14.19
  -7   3   4   16.74   15.35
  -7   4  -4   22.71   14.67
  -7   4  -3   12.65   14.84
  -7   4  -2   17.08   14.00
  -7   4  -1   26.59   15.33
  -7   4   0   45.54   15.83
  -7   4   1   30.02   15.34
  -6  -6  -2   40.50   17.30
  -6  -6  -1   23.04   17.52
  -6  -5  -3    1.77   15.06
  -6  -5  -2   10.52   14.78
  -6  -5  -1   14.53   14.71
  -6  -5   0    8.44   14.97
  -6  -5   1    4.74   15.56
  -6  -5   2   23.34   16.52
  -6  -5   3   21.15   16.32
  -6  -4  -3   32.81   14.58
  -6  -4  -2   36.83   14.12
  -6  -4  -1   24.18   14.73
  -6  -4   0   46.84   15.84
  -6  -4   1   55.78   16.64
  -6  -4   2   69.61   17.39
  -6  -4   3   37.77   16.97
  -6  -4   4   18.98   15.21
  -6  -4   5   36.54   16.80
  -6  -4   6   27.51   18.22
  -6  -3  -5   16.18   14.52
  -6  -3  -4   69.05   13.35
  -6  -3  -3   56.90   13.48
  -6  -3  -2   62.05   14.66
  -6  -3  -1   65.25   14.93
  -6  -3   0   40.64   14.52
  -6  -3   1   69.87   15.60
  -6  -3   2   64.21   15.75
  -6  -3   3   75.74   15.81
  -6  -3   4   64.48   16.83
  -6  -3   5   54.60   17.31
  -6  -3   6   36.60   16.01
  -6  -3   7   47.50   18.22
  -6  -2  -6   20.05   14.67
  -6  -2  -5   11.12   13.49
  -6  -2  -4   52.15   12.39
  -6  -2  -3   25.20   12.28
  -6  -2  -2   20.81   11.83
  -6  -2  -1   27.78   13.15
  -6  -2   0   55.31   14.03
  -6  -2   1   31.86   13.85
  -6  -2   2   41.64   14.33
  -6  -2   3   78.55   16.34
  -6  -2   4   47.50   14.57
  -6  -2   5   22.05   14.78
  -6  -2   6   15.19   14.50
  -6  -2   7    8.77   14.98
  -6  -2   8    4.36   17.81
  -6  -2   9   33.20   17.83
  -6  -1  -7   60.53   16.04
  -6  -1  -6   58.03   14.94
  -6  -1  -5   29.10   11.27
  -6  -1  -4   48.17   10.82
  -6  -1  -3   63.73   11.13
  -6  -1  -2   45.67   10.81
  -6  -1  -1   64.75   12.79
  -6  -1   0   89.21   13.19
  -6  -1   1  105.86   14.17
  -6  -1   2   85.88   14.12
  -6  -1   3   90.31   12.91
  -6  -1   4   57.05   15.25
  -6  -1   5   42.45   14.53
  -6  -1   6   33.89   12.31
  -6  -1   7   43.36   14.34
  -6  -1   8   26.11   13.28
  -6  -1   9   69.81   18.54
  -6  -1  10   51.46   17.82
  -6   1  -6   33.80   11.39
  -6   1  -5   34.56   13.01
  -6   1  -4   51.84   20.25
  -6   1  -3   36.81    8.65
  -6   1  -2   52.69   11.03
  -6   1  -1   80.64   12.84
  -6   1   0   68.25   10.39
  -6   1   1   64.33   10.54
  -6   1   2   67.06   12.14
  -6   1   3  102.86   13.10
  -6   1   4   55.67   12.50
  -6   1   5   36.79   11.07
  -6   1   6   25.87   10.69
  -6   1   7   27.99    9.16
  -6   1   8   11.96   11.97
  -6   1   9   39.04   13.09
  -6   1  10   24.40    8.81
  -6   2  -7    0.77   14.44
  -6   2  -6   32.17   14.59
  -6   2  -5   20.24    8.32
  -6   2  -4   35.13    8.32
  -6   2  -3   36.34    8.74
  -6   2  -2   76.15   13.80
  -6   2  -1   57.08   13.42
  -6   2   0   31.33   12.67
  -6   2   1   21.02   11.96
  -6   2   2   49.42   13.75
  -6   2   3   77.01   15.56
  -6   2   4   34.38   13.33
  -6   2   5   28.12   12.55
  -6   2   6    8.05   12.44
  -6   2   7   30.70   14.25
  -6   2   8    8.96   12.83
  -6   2   9   21.34   14.57
  -6   3  -7   32.31   14.93
  -6   3  -6   56.32   15.72
  -6   3  -5   39.44    8.88
  -6   3  -4   71.23    9.76
  -6   3  -3   76.56    9.88
  -6   3  -2  116.89   14.75
  -6   3  -1   69.36   14.27
  -6   3   0   48.11   14.35
  -6   3   1   56.18   14.16
  -6   3   2  111.22   16.25
  -6   3   3  144.29   16.97
  -6   3   4   59.83   15.74
  -6   3   5   58.46   14.93
  -6   3   6   44.05   14.37
  -6   3   7   52.54   16.28
  -6   3   8    8.42   14.31
  -6   3   9   45.03   15.97
  -6   4  -5   20.09   13.73
  -6   4  -4   26.09   13.16
  -6   4  -3   34.68   13.01
  -6   4  -2   73.80   14.32
  -6   4  -1   45.14   14.26
  -6   4   0   60.65   13.69
  -6   4   1   65.26   15.67
  -6   4   2   88.21   15.32
  -6   4   3   76.94   16.26
  -6   4   4   22.91   14.48
  -6   4   5   29.86   14.79
  -6   4   6   13.42   14.34
  -6   4   7   27.62   15.20
  -6   4   8    6.96   15.10
  -6   5  -5    5.15   14.56
  -6   5  -4   15.64   14.52
  -6   5  -3   19.74   13.75
  -6   5  -2   42.35   14.96
  -6   5  -1   13.17   13.64
  -6   5   0    0.57   12.62
  -6   5   1    1.01   12.77
  -6   5   2   14.61   13.68
  -6   5   3   41.68   14.52
  -6   5   4   19.76   13.85
  -6   5   5   23.91   14.26
  -5  -7  -2   26.72   17.26
  -5  -7  -1    0.22   16.56
  -5  -7   0    0.40   16.55
  -5  -6  -5   14.87   14.67
  -5  -6  -3   20.10   15.06
  -5  -6  -2   45.76   15.55
  -5  -6  -1   32.69   15.35
  -5  -6   0   26.31   15.31
  -5  -6   1   22.63   15.97
  -5  -6   2   29.30   16.10
  -5  -6   3   64.24   18.42
  -5  -6   4    5.40   17.08
  -5  -5  -6    5.05   14.79
  -5  -5  -5   11.25   13.10
  -5  -5  -3   35.60   13.07
  -5  -5  -2   70.77   14.76
  -5  -5  -1    1.93   13.20
  -5  -5   0    2.69   14.16
  -5  -5   1    3.66   14.29
  -5  -5   2   22.09   14.87
  -5  -5   3   50.74   16.46
  -5  -5   4   21.34   15.38
  -5  -5   5   48.25   17.19
  -5  -5   6   17.62   16.11
  -5  -5   7   13.04   17.40
  -5  -4  -7   25.91   15.06
  -5  -4  -6   24.93   13.90
  -5  -4  -5    9.55   12.83
  -5  -4  -4    4.90   11.01
  -5  -4  -3   24.61   11.69
  -5  -4  -2   89.31   14.33
  -5  -4  -1   35.76   12.74
  -5  -4   0   37.54   13.70
  -5  -4   1   33.82   13.60
  -5  -4   2   85.13   16.23
  -5  -4   3   63.65   14.84
  -5  -4   4    0.07   14.10
  -5  -4   5   30.59   14.09
  -5  -4   6   27.02   15.11
  -5  -4   7   22.92   15.31
  -5  -4   8   13.50   16.14
  -5  -4   9   32.17   17.28
  -5  -3  -8   28.42   15.85
  -5  -3  -7   36.69   15.29
  -5  -3  -6   24.16   13.48
  -5  -3  -5   29.26   13.74
  -5  -3  -4   65.82   12.10
  -5  -3  -3  109.16   13.92
  -5  -3  -2  254.89   17.09
  -5  -3  -1   21.23   12.15
  -5  -3   0   47.86   13.21
  -5  -3   1   65.12   14.47
  -5  -3   2  132.99   16.45
  -5  -3   3  152.94   17.50
  -5  -3   4   47.19   14.38
  -5  -3   5   97.38   17.00
  -5  -3   6  114.78   16.54
  -5  -3   7   87.60   16.11
  -5  -3   8   34.39   15.49
  -5  -3   9   47.87   16.36
  -5  -3  10   47.09   17.05
  -5  -3  11   91.68   18.96
  -5  -2  -8    7.28   13.60
  -5  -2  -7   23.23   13.38
  -5  -2  -6    8.63   11.96
  -5  -2  -5   11.95    8.76
  -5  -2  -4   25.49   10.53
  -5  -2  -3   53.19   12.07
  -5  -2  -2  194.96   16.55
  -5  -2  -1   16.84   11.04
  -5  -2   0   21.84   11.71
  -5  -2   1   15.00   10.90
  -5  -2   2   81.45   14.34
  -5  -2   3   93.26   13.60
  -5  -2   4   13.86   12.65
  -5  -2   5   58.47   13.73
  -5  -2   6   66.23   15.21
  -5  -2   7   48.36   14.10
  -5  -2   8   16.67   13.64
  -5  -2   9   31.38   14.29
  -5  -2  10   23.60   15.50
  -5  -2  11   61.62   17.29
  -5  -1  -9   44.04   16.92
  -5  -1  -7   64.26   14.43
  -5  -1  -6   11.25    9.34
  -5  -1  -5   18.14    6.08
  -5  -1  -4   14.79    8.83
  -5  -1  -3   22.18    9.91
  -5  -1  -2  169.26   13.71
  -5  -1  -1   19.76    8.11
  -5  -1   0   45.15   10.25
  -5  -1   1   41.51   10.79
  -5  -1   2   84.69   12.13
  -5  -1   3  111.53   14.96
  -5  -1   4   11.60   10.30
  -5  -1   5   22.33   11.85
  -5  -1   6   40.56   11.06
  -5  -1   7   41.00   13.19
  -5  -1   8   26.20   10.78
  -5  -1   9   44.33   13.48
  -5  -1  10   51.30   14.35
  -5  -1  11   72.76   16.41
  -5   1  -7   32.43   11.31
  -5   1  -6   22.29    8.65
  -5   1  -5   10.36    5.31
  -5   1  -4    0.37   10.74
  -5   1  -3   17.47    6.90
  -5   1  -2  165.52   12.43
  -5   1  -1   13.73    5.40
  -5   1   0   48.22    8.92
  -5   1   1   46.21   10.03
  -5   1   2   87.39   11.78
  -5   1   3   58.38   10.16
  -5   1   4    8.00    7.05
  -5   1   5   29.74    9.99
  -5   1   6   46.46    9.79
  -5   1   7   17.73    6.97
  -5   1   8   29.05    7.12
  -5   1   9   65.50   16.95
  -5   1  10   43.39   12.12
  -5   2  -9   15.41   15.69
  -5   2  -8   17.85   12.56
  -5   2  -7   28.11   13.27
  -5   2  -6   19.25    7.16
  -5   2  -5   14.40    6.98
  -5   2  -4   29.02    7.51
  -5   2  -3   57.36    9.95
  -5   2  -2  200.84   16.76
  -5   2  -1    5.19    9.80
  -5   2   0   18.82   10.71
  -5   2   1   15.33   10.19
  -5   2   2   64.34   12.20
  -5   2   3   67.93   12.27
  -5   2   4    6.91   10.91
  -5   2   5   48.17   12.02
  -5   2   6   99.70   14.88
  -5   2   7   22.25   11.96
  -5   2   8   22.01   12.31
  -5   2   9   18.20   11.80
  -5   2  10   24.15   13.31
  -5   2  11   47.05   14.23
  -5   3  -9   18.40   13.97
  -5   3  -8   22.42   13.18
  -5   3  -7   50.36   13.99
  -5   3  -6   14.47    7.84
  -5   3  -5   30.89    8.11
  -5   3  -4   79.56   13.46
  -5   3  -3  122.38   21.84
  -5   3  -2  298.57   16.79
  -5   3  -1    7.38   10.33
  -5   3   0   44.60   11.82
  -5   3   1   68.86   13.82
  -5   3   2  120.33   14.05
  -5   3   3  127.46   15.97
  -5   3   4   58.67   12.91
  -5   3   5   90.95   15.44
  -5   3   6  177.22   16.46
  -5   3   7   61.26   14.01
  -5   3   8   51.52   13.72
  -5   3   9   42.66   14.15
  -5   3  10   29.89   13.62
  -5   4  -9   21.84   14.54
  -5   4  -8   32.19   13.13
  -5   4  -7   19.74   12.38
  -5   4  -6    7.97    8.38
  -5   4  -5   14.90    7.63
  -5   4  -4    7.43    7.30
  -5   4  -3   13.28    8.98
  -5   4  -2  106.81   13.95
  -5   4  -1    2.75    5.47
  -5   4   0   39.24   12.10
  -5   4   1   41.44   12.09
  -5   4   2   49.33   12.36
  -5   4   3   27.51   12.47
  -5   4   4    4.09   11.52
  -5   4   5    1.95   12.48
  -5   4   6   32.10   12.82
  -5   4   7   17.99   12.31
  -5   4   8   27.06   13.21
  -5   4   9   22.57   12.94
  -5   4  10   31.41   13.54
  -5   5  -6    1.08   13.22
  -5   5  -5   16.30   13.82
  -5   5  -4   22.80   13.40
  -5   5  -3   46.39   14.49
  -5   5  -2  107.15   15.29
  -5   5  -1    1.26   11.64
  -5   5   0    1.58   11.91
  -5   5   1   14.01   11.98
  -5   5   2    3.59   11.46
  -5   5   3   39.88   13.62
  -5   5   4   22.68   13.22
  -5   5   5   50.69   13.93
  -5   5   6   71.06   14.49
  -5   5   7    8.21   13.02
  -5   5   8   22.07   12.90
  -5   5   9   14.91   13.57
  -5   6  -6   10.27   13.14
  -5   6  -5   22.34   15.19
  -5   6  -4   22.59   15.61
  -5   6  -3   28.39   14.77
  -5   6  -2   88.96   17.70
  -5   6  -1    0.20   13.40
  -5   6   0   27.15   13.39
  -5   6   1   40.04   14.63
  -5   6   2   37.62   13.38
  -5   6   3   40.52   13.50
  -5   6   4   22.01   12.62
  -5   6   5   13.62   13.92
  -5   6   6   44.79   14.55
  -5   6   7    7.76   13.01
  -5   6   8   22.15   14.12
  -4  -8  -2   27.84   16.00
  -4  -7  -5    6.69   13.02
  -4  -7  -4    1.08   11.21
  -4  -7  -3   15.71   13.51
  -4  -7  -2   55.91   15.05
  -4  -7  -1    1.61   14.24
  -4  -7   0   21.71   14.18
  -4  -7   1   27.49   15.33
  -4  -7   2   27.87   15.51
  -4  -7   3   11.75   15.46
  -4  -7   4   12.87   15.27
  -4  -6  -7   39.75   15.62
  -4  -6  -6    2.20   12.92
  -4  -6  -5   12.97   12.06
  -4  -6  -4    4.32   11.04
  -4  -6  -3   26.79    8.13
  -4  -6  -2   71.16    9.39
  -4  -6  -1    1.20   11.85
  -4  -6   0   31.76   13.90
  -4  -6   1   36.80   14.09
  -4  -6   2   43.41   14.65
  -4  -6   3    5.14   13.81
  -4  -6   4    3.91   13.71
  -4  -6   5    4.11   15.04
  -4  -6   6   36.65   16.49
  -4  -6   7   44.65   17.36
  -4  -5  -8   19.76   15.46
  -4  -5  -7   25.35   14.35
  -4  -5  -6    8.50   12.54
  -4  -5  -5   11.75   12.71
  -4  -5  -4   55.85   11.78
  -4  -5  -3   61.20   12.70
  -4  -5  -2  105.58   14.17
  -4  -5  -1    2.22    6.25
  -4  -5   0   15.02    5.97
  -4  -5   1   10.25   11.69
  -4  -5   2   13.84   12.92
  -4  -5   3   40.07   13.61
  -4  -5   4   26.64   13.85
  -4  -5   5   47.36   13.76
  -4  -5   6   75.77   16.16
  -4  -5   7   41.17   14.97
  -4  -5   8    6.10   15.13
  -4  -5   9    0.27   15.96
  -4  -4  -9   43.22   16.52
  -4  -4  -8   56.85   16.46
  -4  -4  -7   72.88   14.15
  -4  -4  -6   10.13   12.30
  -4  -4  -5    8.56    6.87
  -4  -4  -4   10.45    9.27
  -4  -4  -3   13.92   10.34
  -4  -4  -2  104.79   13.57
  -4  -4  -1    1.77   10.43
  -4  -4   0   54.50   12.60
  -4  -4   1   67.52    5.87
  -4  -4   2   38.64   12.41
  -4  -4   3   16.56   11.64
  -4  -4   4   14.51   11.15
  -4  -4   5    4.01   12.45
  -4  -4   6   44.01   14.17
  -4  -4   7   43.84   14.96
  -4  -4   8   41.09   14.86
  -4  -4   9   48.08   15.96
  -4  -4  10   13.24   15.08
  -4  -4  11   16.74   15.32
  -4  -3  -9   63.18   16.56
  -4  -3  -8   87.19   16.22
  -4  -3  -7  122.48   17.14
  -4  -3  -6   20.74   11.61
  -4  -3  -5   71.09    8.18
  -4  -3  -4  147.94   11.80
  -4  -3  -3  164.49   13.30
  -4  -3  -2  267.87   15.58
  -4  -3  -1   13.38    9.96
  -4  -3   0  122.87   13.45
  -4  -3   1  145.71   14.25
  -4  -3   2   96.28    9.22
  -4  -3   3  103.49   13.91
  -4  -3   4   59.38   13.12
  -4  -3   5   97.46   14.79
  -4  -3   6  135.17   16.76
  -4  -3   7  126.00   15.77
  -4  -3   8   67.26   14.94
  -4  -3   9   57.74   14.31
  -4  -3  10   27.79   14.64
  -4  -3  11   30.36   14.33
  -4  -2 -10   26.75   14.63
  -4  -2  -9   43.33   14.68
  -4  -2  -8   23.20   12.79
  -4  -2  -7   60.69   13.65
  -4  -2  -6   12.06   11.11
  -4  -2  -5   19.69    6.16
  -4  -2  -4   85.28   10.28
  -4  -2  -3   95.35   10.80
  -4  -2  -2  198.71    7.05
  -4  -2  -1    0.03    4.90
  -4  -2   0   81.55   11.20
  -4  -2   1   53.65   11.59
  -4  -2   2   40.32   10.33
  -4  -2   3   21.74   11.02
  -4  -2   4   30.09   10.67
  -4  -2   5   46.61   11.70
  -4  -2   6  113.49   14.91
  -4  -2   7   82.72   14.88
  -4  -2   8   30.77    6.95
  -4  -2   9   20.76    9.07
  -4  -2  10    5.41    7.58
  -4  -2  11    8.14    8.91
  -4  -1  -8   57.50    9.50
  -4  -1  -7   82.33   12.25
  -4  -1  -6    1.90   13.20
  -4  -1  -5   15.32    5.80
  -4  -1  -4   22.79    6.86
  -4  -1  -3   52.76    8.07
  -4  -1  -2  130.26    6.04
  -4  -1  -1    0.62    2.82
  -4  -1   0   91.03   11.17
  -4  -1   1  112.90    9.60
  -4  -1   2   69.65   10.33
  -4  -1   3   26.67    2.05
  -4  -1   4    3.02    9.49
  -4  -1   5   56.95   12.30
  -4  -1   6   47.36    9.25
  -4  -1   7  141.62   12.51
  -4  -1   8   45.82    7.20
  -4  -1   9   45.63    8.65
  -4  -1  10   15.26    7.83
  -4  -1  11   11.86    8.01
  -4  -1  12   35.45   34.08
  -4  -1  13    2.84   13.62
  -4   1  -7  153.87   15.75
  -4   1  -6    1.67    5.34
  -4   1  -5   14.44   14.55
  -4   1  -4   34.73    5.12
  -4   1  -3   60.35    5.85
  -4   1  -2  132.13    9.75
  -4   1  -1   22.66    4.35
  -4   1   0   98.32    4.79
  -4   1   1  111.46   10.06
  -4   1   2   87.28   10.48
  -4   1   3   26.28    7.86
  -4   1   4    4.99    9.29
  -4   1   5   24.28    8.48
  -4   1   6   67.64    9.76
  -4   1   7  165.89   12.12
  -4   1   8   57.62    8.62
  -4   1   9   47.43    8.97
  -4   1  10    5.42    6.13
  -4   1  11   12.96   14.96
  -4   1  12    4.91   21.67
  -4   1  13    2.90   17.33
  -4   2 -10    0.90   13.61
  -4   2  -9   73.68   15.16
  -4   2  -8   58.70   13.76
  -4   2  -7   84.99   13.75
  -4   2  -6   11.66    6.30
  -4   2  -5   48.52    6.83
  -4   2  -4   80.89    7.36
  -4   2  -3  117.19    8.17
  -4   2  -2  161.60   12.47
  -4   2  -1   30.29    4.55
  -4   2   0   89.43    9.82
  -4   2   1   75.71   11.24
  -4   2   2   41.75    9.10
  -4   2   3   45.11    4.14
  -4   2   4   41.95    4.81
  -4   2   5   49.18    5.92
  -4   2   6   89.65    7.31
  -4   2   7  169.06   10.93
  -4   2   8   33.15    7.43
  -4   2   9   24.44    8.59
  -4   2  10    0.40    7.55
  -4   2  11    0.30   14.48
  -4   3 -10   14.94   13.73
  -4   3  -9   74.36   15.58
  -4   3  -8   72.76   13.61
  -4   3  -7  127.39    9.80
  -4   3  -6   35.54    7.66
  -4   3  -5  100.05   13.64
  -4   3  -4  131.81    9.37
  -4   3  -3  190.24    9.61
  -4   3  -2  220.03    9.73
  -4   3  -1  107.36    7.09
  -4   3   0  154.90   13.69
  -4   3   1  170.80   13.76
  -4   3   2  139.97    7.43
  -4   3   3  123.24   12.60
  -4   3   4  102.37   12.73
  -4   3   5   99.47    6.51
  -4   3   6  142.75   12.93
  -4   3   7  210.81    9.34
  -4   3   8   63.11    7.91
  -4   3   9   41.14   11.56
  -4   3  10   14.70   10.65
  -4   4 -10   16.52   15.13
  -4   4  -9   71.66   15.56
  -4   4  -8   82.28   14.86
  -4   4  -7   65.33    8.55
  -4   4  -6    0.74    7.04
  -4   4  -5   13.46    7.07
  -4   4  -4   11.81    6.20
  -4   4  -3   50.78    9.45
  -4   4  -2   71.62    7.94
  -4   4  -1   30.71    5.67
  -4   4   0   60.75    5.74
  -4   4   1  100.71   13.02
  -4   4   2   84.60   12.15
  -4   4   3   31.46   11.57
  -4   4   4    5.89   10.49
  -4   4   5    9.51   10.06
  -4   4   6   33.74   11.43
  -4   4   7  103.41   14.22
  -4   4   8   48.60   11.28
  -4   4   9   47.43   12.66
  -4   5  -7   44.54   12.18
  -4   5  -6    5.62   11.62
  -4   5  -5   42.54   13.07
  -4   5  -4   58.51   13.22
  -4   5  -3  115.98   14.72
  -4   5  -2   80.09   14.25
  -4   5  -1   23.35   11.21
  -4   5   0   38.95   11.06
  -4   5   1   39.23   11.46
  -4   5   2   22.39   10.98
  -4   5   3   20.22   10.78
  -4   5   4   23.42   12.17
  -4   5   5   36.07   11.75
  -4   5   6   64.18   13.12
  -4   5   7   78.59   13.04
  -4   5   8   13.04   11.48
  -4   5   9    5.34   11.95
  -4   6  -7   49.83   14.61
  -4   6  -6   18.20   11.70
  -4   6  -5    6.16   12.05
  -4   6  -4   20.15   13.19
  -4   6  -3   55.85   15.12
  -4   6  -2   67.21   14.16
  -4   6  -1   57.83   15.39
  -4   6   0   62.10   13.43
  -4   6   1   77.91   14.56
  -4   6   2   52.36   13.59
  -4   6   3   29.97   12.85
  -4   6   4   15.95   12.40
  -4   6   5    9.92   11.49
  -4   6   6   39.23   13.02
  -4   6   7   64.04   13.95
  -4   6   8   29.02   12.09
  -4   7  -5   15.63   13.44
  -4   7  -4   25.32   15.36
  -4   7  -3   41.11   15.44
  -4   7  -2   25.26   14.62
  -4   7  -1   32.65   15.10
  -4   7   0   11.98   15.22
  -4   7   1   16.39   13.29
  -4   7   2   30.75   15.21
  -4   7   3   35.11   14.79
  -4   7   4   24.49   13.92
  -4   7   5   12.84   13.99
  -4   7   6   25.40   14.10
  -4   7   7   59.28   15.75
  -4   7   8   11.57   14.19
  -3  -8  -4    9.77   13.54
  -3  -8  -3    9.05    8.56
  -3  -8  -2   13.76   14.29
  -3  -8  -1    1.25   15.12
  -3  -8   0   20.31   15.32
  -3  -8   1   13.32   15.06
  -3  -8   2   19.18   15.94
  -3  -7  -6   16.50   11.61
  -3  -7  -5   26.18   11.54
  -3  -7  -4   42.21    8.97
  -3  -7  -3   38.04    8.84
  -3  -7  -2   40.01    8.75
  -3  -7  -1   30.85    7.97
  -3  -7   0   21.51   13.87
  -3  -7   1   45.68   15.58
  -3  -7   2   46.27   15.65
  -3  -7   3   40.25   14.16
  -3  -7   4   18.83   15.93
  -3  -7   5   20.41   15.53
  -3  -7   6   20.69   17.05
  -3  -6  -9   43.97   15.65
  -3  -6  -8   41.96   14.45
  -3  -6  -7   41.75   14.41
  -3  -6  -6   28.66    7.64
  -3  -6  -5   46.10    8.68
  -3  -6  -4   51.49    7.82
  -3  -6  -3   48.12    8.14
  -3  -6  -2   50.68    7.71
  -3  -6  -1   71.38    8.50
  -3  -6   0   76.54   10.16
  -3  -6   1  129.04   15.25
  -3  -6   2  127.18   16.19
  -3  -6   3   47.03   14.81
  -3  -6   4   38.87   13.93
  -3  -6   5   36.18   14.02
  -3  -6   6   26.64   14.40
  -3  -6   7  128.62   18.73
  -3  -6   8   37.71   16.15
  -3  -6   9   50.65   16.68
  -3  -5 -10   12.19   13.82
  -3  -5  -9   31.49   15.00
  -3  -5  -8   35.19   13.26
  -3  -5  -7   49.34   14.31
  -3  -5  -6   18.86   11.82
  -3  -5  -5   59.90    7.42
  -3  -5  -4   79.74   10.08
  -3  -5  -3   56.66   10.59
  -3  -5  -2   40.79    7.00
  -3  -5  -1   26.46    6.11
  -3  -5   0   71.64   12.18
  -3  -5   1   55.63    6.62
  -3  -5   2   49.39    5.96
  -3  -5   3   32.51   12.78
  -3  -5   4   23.43   11.44
  -3  -5   5   12.43   11.89
  -3  -5   6   17.83   13.00
  -3  -5   7   98.84   15.29
  -3  -5   8   23.66   14.26
  -3  -5   9    1.71   12.96
  -3  -5  10   20.28   14.12
  -3  -5  11    1.13   14.09
  -3  -4 -10   23.76   14.06
  -3  -4  -9   63.99   15.70
  -3  -4  -8   58.35   14.36
  -3  -4  -7   60.31   14.31
  -3  -4  -6   44.47   11.75
  -3  -4  -5   54.65    8.94
  -3  -4  -4   65.51    9.15
  -3  -4  -3   67.30   10.11
  -3  -4  -2   67.74    6.14
  -3  -4  -1   92.01   11.94
  -3  -4   0  123.39    7.00
  -3  -4   1  169.17    7.34
  -3  -4   2  286.02    7.78
  -3  -4   3   77.84   12.80
  -3  -4   4   40.11   11.61
  -3  -4   5   32.81   11.63
  -3  -4   6   15.35   11.08
  -3  -4   7  231.39   18.81
  -3  -4   8   35.44   12.26
  -3  -4   9   62.55   14.06
  -3  -4  10   33.52   13.56
  -3  -4  11   20.94   14.64
  -3  -3 -11   35.05   15.64
  -3  -3 -10   20.87   14.53
  -3  -3  -9   99.52   15.98
  -3  -3  -8  101.75   16.04
  -3  -3  -7  108.21   14.39
  -3  -3  -6  108.28    7.35
  -3  -3  -5  163.14    9.64
  -3  -3  -4  227.56   12.07
  -3  -3  -3  193.33    7.14
  -3  -3  -2  180.50   14.02
  -3  -3  -1  184.00   11.64
  -3  -3   0  192.31   13.90
  -3  -3   1  242.20   14.49
  -3  -3   2  442.84   44.69
  -3  -3   3  207.76   13.99
  -3  -3   4  118.82    8.25
  -3  -3   5   95.76    6.83
  -3  -3   6   63.84    6.70
  -3  -3   7  364.61   11.37
  -3  -3   8   70.25    8.49
  -3  -3   9   59.79    8.34
  -3  -3  10   39.53    8.17
  -3  -3  11   28.88    8.94
  -3  -2 -11   27.91   14.46
  -3  -2 -10   16.23   11.74
  -3  -2  -9   49.93   14.61
  -3  -2  -8   53.82   12.27
  -3  -2  -7   69.10   14.56
  -3  -2  -6   48.93    3.21
  -3  -2  -5   98.62    7.47
  -3  -2  -4  155.33    9.80
  -3  -2  -3  121.70    9.36
  -3  -2  -2  103.78    8.14
  -3  -2  -1   79.57    8.26
  -3  -2   0  104.51   10.38
  -3  -2   1  115.35   12.71
  -3  -2   2  353.37   32.45
  -3  -2   3   89.88   10.76
  -3  -2   4   29.92    9.65
  -3  -2   5   31.44    5.24
  -3  -2   6   12.34    5.16
  -3  -2   7  293.02   11.57
  -3  -2   8   30.25    6.65
  -3  -2   9   36.18    7.81
  -3  -2  10   17.53    7.65
  -3  -2  11   15.66    8.05
  -3  -2  12  134.54   94.40
  -3  -2  13    6.88   12.87
  -3  -1  -7   49.33    7.70
  -3  -1  -6   69.83   16.69
  -3  -1  -5  110.46    6.72
  -3  -1  -4  140.20   14.18
  -3  -1  -3  132.70   10.70
  -3  -1  -2  131.53    6.78
  -3  -1  -1  145.79    8.21
  -3  -1   0  194.98   25.44
  -3  -1   1  410.66   13.99
  -3  -1   2 1053.11   25.57
  -3  -1   3  232.70   13.58
  -3  -1   4   55.99    8.68
  -3  -1   5   32.98    5.29
  -3  -1   6   26.36    6.75
  -3  -1   7  380.42   11.40
  -3  -1   8   61.65   20.27
  -3  -1   9   66.25   13.85
  -3  -1  10   90.51    9.94
  -3  -1  11   50.23    9.83
  -3  -1  12   48.37   13.12
  -3  -1  13    4.64   13.93
  -3   1  -8  121.26   14.80
  -3   1  -7   72.41    6.29
  -3   1  -6   91.97   13.58
  -3   1  -5   54.06   27.52
  -3   1  -4  209.99    7.41
  -3   1  -3  123.86   10.31
  -3   1  -2  172.99   28.70
  -3   1  -1  105.36   11.30
  -3   1   0  227.96   15.65
  -3   1   1  368.57   21.99
  -3   1   2  928.00   13.70
  -3   1   3  178.19    6.56
  -3   1   4   62.25    7.20
  -3   1   5   28.22    8.02
  -3   1   6   22.49    7.06
  -3   1   7  325.72   28.46
  -3   1   8   79.70    5.95
  -3   1   9   84.13    9.28
  -3   1  10   92.09    6.38
  -3   1  11   69.08   10.04
  -3   1  12   33.51   10.01
  -3   1  13    4.12   16.33
  -3   2 -11   20.29   14.08
  -3   2 -10   13.00   12.61
  -3   2  -9   11.65    8.36
  -3   2  -8   64.75   11.89
  -3   2  -7   62.84    7.14
  -3   2  -6   46.07    6.60
  -3   2  -5   84.14    6.74
  -3   2  -4  221.80   16.63
  -3   2  -3   99.70    7.25
  -3   2  -2   84.68    9.40
  -3   2  -1   73.15   10.15
  -3   2   0   96.33    5.61
  -3   2   1  144.11    8.74
  -3   2   2  501.67   24.25
  -3   2   3  101.06    4.76
  -3   2   4   37.28    5.14
  -3   2   5   46.39    5.06
  -3   2   6   29.10    5.72
  -3   2   7  258.40   10.39
  -3   2   8   34.93    6.69
  -3   2   9   26.68   10.72
  -3   2  10   32.78    9.84
  -3   2  11   29.09    9.04
  -3   2  12   45.23   10.47
  -3   2  13    6.46   13.86
  -3   3 -11   14.49   14.09
  -3   3 -10   28.44   13.67
  -3   3  -9   47.43   13.38
  -3   3  -8   86.21    8.50
  -3   3  -7   70.79   13.89
  -3   3  -6   91.52    7.98
  -3   3  -5  151.81    9.22
  -3   3  -4  330.40   10.04
  -3   3  -3  154.60   20.66
  -3   3  -2  189.23   12.43
  -3   3  -1  142.16    5.55
  -3   3   0  270.08   20.94
  -3   3   1  264.16    8.30
  -3   3   2  574.83   25.40
  -3   3   3  206.50   21.82
  -3   3   4  127.76    5.15
  -3   3   5  123.30    6.94
  -3   3   6   89.85    7.73
  -3   3   7  304.22   10.41
  -3   3   8   85.32    8.05
  -3   3   9   57.25    7.91
  -3   3  10   80.74   13.11
  -3   3  11   46.83   13.89
  -3   3  12   46.07   14.51
  -3   3  13   24.05   14.38
  -3   4 -11   12.07   15.18
  -3   4 -10   25.39   14.13
  -3   4  -9   80.11   14.68
  -3   4  -8   39.68    7.82
  -3   4  -7   35.63    7.67
  -3   4  -6   45.39    7.53
  -3   4  -5   72.89   12.92
  -3   4  -4  130.91    8.56
  -3   4  -3   67.83   10.67
  -3   4  -2   89.31    9.97
  -3   4  -1   74.06    4.17
  -3   4   0  205.16    7.94
  -3   4   1  191.77    9.79
  -3   4   2  406.42    6.69
  -3   4   3  113.83    4.48
  -3   4   4   59.67   10.62
  -3   4   5   43.62    9.67
  -3   4   6   30.26    9.44
  -3   4   7  168.99   14.51
  -3   4   8   76.78    7.51
  -3   4   9   64.59    7.74
  -3   4  10   89.85   12.79
  -3   5 -10   14.52   14.55
  -3   5  -9   24.11   12.66
  -3   5  -8   61.47    9.08
  -3   5  -7   23.66    7.28
  -3   5  -6   18.29    7.04
  -3   5  -5   30.29    7.75
  -3   5  -4   92.69    7.43
  -3   5  -3   15.00    6.96
  -3   5  -2   15.18    4.60
  -3   5  -1   23.31    9.51
  -3   5   0   47.37   11.98
  -3   5   1   36.85   10.38
  -3   5   2  109.52   12.38
  -3   5   3   29.61   10.33
  -3   5   4   33.82   10.39
  -3   5   5   10.09    9.35
  -3   5   6   16.18    9.53
  -3   5   7   67.98   11.37
  -3   5   8   27.60   10.03
  -3   6  -8    8.88   12.00
  -3   6  -7   16.43   12.00
  -3   6  -6   28.68   11.97
  -3   6  -5   58.32   12.65
  -3   6  -4  129.17   16.23
  -3   6  -3   45.00   12.96
  -3   6  -2   83.46   14.78
  -3   6  -1   71.92   14.43
  -3   6   0  111.73   15.35
  -3   6   1   90.91   15.18
  -3   6   2  245.21   18.35
  -3   6   3   95.31   14.29
  -3   6   4   68.90   12.68
  -3   6   5   21.84   11.20
  -3   6   6   43.77   12.19
  -3   6   7   90.42   13.92
  -3   6   8   59.82   13.03
  -3   7  -8   17.18   14.20
  -3   7  -7   15.48   13.88
  -3   7  -6   20.52   12.96
  -3   7  -5   29.72   13.59
  -3   7  -4   49.66   13.63
  -3   7  -3   17.36   13.10
  -3   7  -2   19.39   12.76
  -3   7  -1   17.64   13.42
  -3   7   0   38.35   14.47
  -3   7   1   45.35   13.51
  -3   7   2  116.69   17.35
  -3   7   3   34.65   14.71
  -3   7   4   53.58   14.65
  -3   7   5    0.26   13.00
  -3   7   6    5.15   13.13
  -3   7   7   57.46   14.72
  -3   8  -3    4.10   12.41
  -3   8  -2    4.29   12.76
  -3   8  -1   15.54   13.49
  -3   8   0   17.36   12.98
  -3   8   1   11.51   13.78
  -3   8   2   16.16   14.54
  -3   8   3    2.17   13.68
  -3   8   4   11.50   14.22
  -3   8   5    0.05   12.83
  -3   8   6    5.37   13.49
  -3   8   7   14.37   14.47
  -2  -9  -3    9.19    9.30
  -2  -9  -2   10.43   16.93
  -2  -8  -5    1.29   10.47
  -2  -8  -4    9.69   11.56
  -2  -8  -3    1.28    8.24
  -2  -8  -2    0.22    8.10
  -2  -8  -1    5.23    8.47
  -2  -8   0    4.15    7.94
  -2  -8   1    6.68   14.34
  -2  -8   2   16.44   14.49
  -2  -8   3    0.64   15.75
  -2  -8   4    0.90   15.56
  -2  -7  -7   14.42   13.32
  -2  -7  -6   36.89   11.22
  -2  -7  -5   33.71   11.10
  -2  -7  -4   52.53   11.60
  -2  -7  -3   10.20    7.79
  -2  -7  -2   25.37    7.67
  -2  -7  -1   25.96    7.71
  -2  -7   0   32.19    7.68
  -2  -7   1   31.66    7.71
  -2  -7   2   67.53   15.35
  -2  -7   3   34.02   15.14
  -2  -7   4   37.11   15.24
  -2  -7   5   18.74   14.45
  -2  -7   6   13.32   15.49
  -2  -7   7   53.79   17.21
  -2  -7   8   13.28   15.26
  -2  -6  -8   10.66    8.78
  -2  -6  -7   15.24    9.46
  -2  -6  -6   56.69    9.02
  -2  -6  -5   85.56    9.83
  -2  -6  -4  130.51    7.47
  -2  -6  -3   49.59    7.93
  -2  -6  -2   82.25    8.00
  -2  -6  -1   67.61   10.12
  -2  -6   0   79.49    8.26
  -2  -6   1   96.10    8.20
  -2  -6   2  186.97   11.09
  -2  -6   3  116.52   15.90
  -2  -6   4   82.75   15.00
  -2  -6   5   67.29   15.02
  -2  -6   6   39.65   13.64
  -2  -6   7  133.96   18.06
  -2  -6   8   37.11   15.13
  -2  -6   9   40.12   15.07
  -2  -6  10   56.68   16.56
  -2  -5 -11    8.02   12.93
  -2  -5 -10    6.41   13.32
  -2  -5  -9   13.48   11.60
  -2  -5  -8   16.08   11.61
  -2  -5  -7   37.59   11.96
  -2  -5  -6    8.19    9.50
  -2  -5  -5   30.68    4.66
  -2  -5  -4   81.27    4.72
  -2  -5  -3    4.63    3.72
  -2  -5  -2    5.80    3.77
  -2  -5  -1    1.95    3.43
  -2  -5   0   26.26    3.54
  -2  -5   1   13.53    3.55
  -2  -5   2   68.77    9.85
  -2  -5   3   15.07    5.16
  -2  -5   4   32.53    5.69
  -2  -5   5   45.05    6.06
  -2  -5   6   43.49    8.03
  -2  -5   7   48.98   14.02
  -2  -5   8    0.27   12.35
  -2  -5   9    3.18   12.64
  -2  -5  10   13.21   13.28
  -2  -5  11   21.03   13.17
  -2  -4 -11   27.96   13.71
  -2  -4 -10   42.70   14.03
  -2  -4  -9   85.78   13.63
  -2  -4  -8    4.60   10.77
  -2  -4  -7   24.54   10.55
  -2  -4  -6   61.43    6.40
  -2  -4  -5  114.21   14.64
  -2  -4  -4  232.46    8.91
  -2  -4  -3   57.94    4.19
  -2  -4  -2   93.55   14.26
  -2  -4  -1   62.21    2.69
  -2  -4   0  203.16   11.87
  -2  -4   1  180.29    7.11
  -2  -4   2  297.35   28.91
  -2  -4   3  103.53    5.40
  -2  -4   4   91.07   16.71
  -2  -4   5   96.58    7.36
  -2  -4   6   85.57    7.04
  -2  -4   7  133.50    8.68
  -2  -4   8   53.52    8.45
  -2  -4   9   55.06    8.02
  -2  -4  10   78.80    9.47
  -2  -4  11   65.56   10.15
  -2  -4  12   47.99   13.31
  -2  -3 -12   18.75   14.77
  -2  -3 -11    8.49   13.67
  -2  -3 -10   43.20   13.45
  -2  -3  -9   83.15   14.62
  -2  -3  -8   43.46   12.31
  -2  -3  -7   63.21   12.65
  -2  -3  -6   72.96   17.66
  -2  -3  -5  206.86    6.02
  -2  -3  -4  422.25   23.20
  -2  -3  -3   52.77    5.49
  -2  -3  -2  118.67   19.48
  -2  -3  -1   34.30    6.24
  -2  -3   0  235.28    6.91
  -2  -3   1  168.38    6.87
  -2  -3   2  428.88   18.16
  -2  -3   3  168.71    5.62
  -2  -3   4  171.00   25.25
  -2  -3   5  210.06   15.23
  -2  -3   6  178.54   12.80
  -2  -3   7  180.59   17.93
  -2  -3   8   74.43    6.96
  -2  -3   9   70.81    8.94
  -2  -3  10  106.32    9.50
  -2  -3  11   73.86   13.59
  -2  -3  12  132.30   62.65
  -2  -3  13   44.13   14.73
  -2  -2 -12    2.02   14.93
  -2  -2 -11   11.03   10.06
  -2  -2 -10   43.32   13.33
  -2  -2  -9   71.00   12.52
  -2  -2  -8   39.10   11.52
  -2  -2  -7   20.65   10.09
  -2  -2  -6   24.23   10.53
  -2  -2  -5   97.40    4.94
  -2  -2  -4  310.13    8.18
  -2  -2  -3    4.70    3.40
  -2  -2  -2   30.75    4.51
  -2  -2  -1    5.41    2.32
  -2  -2   0  125.64    7.30
  -2  -2   1   56.44    8.25
  -2  -2   2  250.63    5.70
  -2  -2   3   42.07    4.57
  -2  -2   4   90.38    5.10
  -2  -2   5  107.99    9.19
  -2  -2   6  104.60    6.23
  -2  -2   7   78.08    6.74
  -2  -2   8   44.83   14.11
  -2  -2   9   31.59    8.25
  -2  -2  10   63.96   14.11
  -2  -2  11   47.91   10.31
  -2  -2  12   47.11   10.58
  -2  -2  13    3.42   13.23
  -2  -1 -10   66.11   12.53
  -2  -1  -9  285.90   19.88
  -2  -1  -7   15.32    4.79
  -2  -1  -6   56.01   19.84
  -2  -1  -5  254.45   14.23
  -2  -1  -4  563.60   77.01
  -2  -1  -3   59.57    5.50
  -2  -1  -2  123.54   10.06
  -2  -1  -1   88.49   16.84
  -2  -1   0  425.84   29.91
  -2  -1   1  309.97   53.70
  -2  -1   2  607.63   85.73
  -2  -1   3  176.61   20.94
  -2  -1   4  200.76   11.66
  -2  -1   5  136.12    6.12
  -2  -1   6  113.95    6.26
  -2  -1   7  102.50    7.19
  -2  -1   8   83.54    6.34
  -2  -1   9  104.98    8.79
  -2  -1  10  112.97   11.19
  -2  -1  11  110.62   13.84
  -2  -1  12   81.29   10.67
  -2  -1  13   37.56   23.03
  -2   1 -10   54.75   12.62
  -2   1  -7   19.71    4.72
  -2   1  -6   52.60    7.01
  -2   1  -5  231.94  166.31
  -2   1  -4  494.55  224.89
  -2   1  -3   34.80    4.28
  -2   1  -2  126.21   15.05
  -2   1  -1  135.92   10.61
  -2   1   0  329.42   25.97
  -2   1   1  334.55   21.21
  -2   1   2  454.51   46.19
  -2   1   3  227.92   35.41
  -2   1   4  232.21   27.15
  -2   1   5  106.02    4.93
  -2   1   6  172.99   21.61
  -2   1   7   79.39   25.33
  -2   1   8   99.05    8.05
  -2   1  10   77.35   12.36
  -2   1  11  121.02   13.47
  -2   1  12   73.38    9.70
  -2   1  13   35.03    9.32
  -2   2 -12    9.88   12.03
  -2   2 -11    9.56   15.62
  -2   2 -10   16.48   10.29
  -2   2  -9   92.90   12.97
  -2   2  -8   26.51    5.45
  -2   2  -7   17.55    3.97
  -2   2  -6   22.56    2.90
  -2   2  -5  114.12    3.66
  -2   2  -4  226.71    3.82
  -2   2  -3   15.26    4.94
  -2   2  -2   27.48    3.80
  -2   2  -1    7.03    3.23
  -2   2   0   52.36    6.08
  -2   2   1   74.61    3.86
  -2   2   2  165.21    7.75
  -2   2   3   65.57    3.84
  -2   2   4   86.31    5.01
  -2   2   5  121.66    8.57
  -2   2   6  123.92    5.11
  -2   2   7   73.43    5.65
  -2   2   8   44.24    5.61
  -2   2   9   44.17    8.68
  -2   2  10   47.85    8.79
  -2   2  11   72.96   10.11
  -2   2  12   51.63   10.07
  -2   2  13   32.79   15.06
  -2   3 -12   18.92   16.01
  -2   3 -11   46.51   15.88
  -2   3 -10   89.69   15.14
  -2   3  -9  209.56   18.39
  -2   3  -8   14.39    5.79
  -2   3  -7   60.01    6.33
  -2   3  -6   65.67    4.53
  -2   3  -5  207.28    9.60
  -2   3  -4  312.25   19.53
  -2   3  -3   94.29    4.11
  -2   3  -2  124.02    6.47
  -2   3  -1   95.45    4.02
  -2   3   0  131.00    3.30
  -2   3   1  134.38   10.86
  -2   3   2  212.92    4.58
  -2   3   3  167.15   14.52
  -2   3   4  181.47   10.20
  -2   3   5  197.03    6.11
  -2   3   6  190.08   17.42
  -2   3   7  153.06    6.70
  -2   3   8   78.01    5.94
  -2   3   9   64.88    6.23
  -2   3  10   65.20    9.49
  -2   3  11   87.60   11.30
  -2   3  12   82.40   13.28
  -2   3  13   48.21   15.57
  -2   4 -11   25.90   14.33
  -2   4 -10   56.62   15.07
  -2   4  -9  109.48   14.62
  -2   4  -8    2.85    6.79
  -2   4  -7   18.34    6.43
  -2   4  -6   52.37    5.07
  -2   4  -5  204.57   13.90
  -2   4  -4  252.00   19.94
  -2   4  -3   67.10    5.08
  -2   4  -2   96.62   11.91
  -2   4  -1   80.39    3.74
  -2   4   0   82.20    5.99
  -2   4   1  139.87   12.01
  -2   4   2  206.45   13.23
  -2   4   3  120.41   10.69
  -2   4   4  170.64   12.81
  -2   4   5   87.57    9.38
  -2   4   6   98.68    9.62
  -2   4   7   80.09    6.94
  -2   4   8   38.53    6.26
  -2   4   9   52.13   11.44
  -2   4  10   33.42   11.53
  -2   4  11   71.87   10.91
  -2   4  12   45.28   14.41
  -2   5 -11    0.07   15.37
  -2   5 -10   21.12   13.42
  -2   5  -9   52.67   13.84
  -2   5  -8   17.13    7.90
  -2   5  -7   13.68    7.01
  -2   5  -6    7.54    4.77
  -2   5  -5   13.55    4.43
  -2   5  -4   27.67    4.73
  -2   5  -3   19.65    4.22
  -2   5  -2    4.04    3.30
  -2   5  -1   19.23    4.37
  -2   5   0    0.49    8.94
  -2   5   1   21.43   10.02
  -2   5   2   38.03    9.70
  -2   5   3   14.29    9.51
  -2   5   4   12.59    9.02
  -2   5   5   99.83   11.60
  -2   5   6   40.25   10.56
  -2   5   7   19.38    8.62
  -2   5   8    3.88    7.84
  -2   6  -8    1.31   11.09
  -2   6  -7   19.62   11.42
  -2   6  -6   54.50   12.62
  -2   6  -5   99.30    9.10
  -2   6  -4  152.36   27.85
  -2   6  -3   59.58   10.30
  -2   6  -2   72.27   10.65
  -2   6  -1   62.58    9.30
  -2   6   0   37.76   12.70
  -2   6   1   88.58   13.75
  -2   6   2   79.90   12.84
  -2   6   3   64.33   12.21
  -2   6   4  100.23   13.47
  -2   6   5   81.36   13.81
  -2   6   6   93.81   12.95
  -2   6   7   57.46   12.02
  -2   7  -8    4.07   13.07
  -2   7  -7   10.39   13.10
  -2   7  -6   20.70   12.79
  -2   7  -5   33.29   12.60
  -2   7  -4   48.52    9.13
  -2   7  -3   12.09    7.77
  -2   7  -2   14.21    8.18
  -2   7  -1   31.32   11.49
  -2   7   0   21.29   12.10
  -2   7   1   52.64   13.27
  -2   7   2   42.27   12.59
  -2   7   3   40.01   12.95
  -2   7   4   32.87   12.19
  -2   7   5   23.86   12.25
  -2   7   6   29.61   12.36
  -2   7   7   22.73   11.75
  -2   8  -5   14.66   14.27
  -2   8  -4    3.71   13.08
  -2   8  -3    2.32    9.18
  -2   8  -2    0.32   13.07
  -2   8  -1    7.75   13.15
  -2   8   0    1.94   11.96
  -2   8   1   10.59   12.52
  -2   8   2    7.96   11.54
  -2   8   3    1.37   11.73
  -2   8   4    5.49   11.41
  -2   8   5   16.69   11.89
  -2   8   6   18.87   11.60
  -1  -9  -3    9.86    8.64
  -1  -9  -2    9.22    8.87
  -1  -9  -1    8.19    8.73
  -1  -9   0    8.44   15.73
  -1  -8  -5    0.51   12.72
  -1  -8  -4    3.98    8.41
  -1  -8  -3    1.24    8.03
  -1  -8  -2    0.49    7.78
  -1  -8  -1    8.08    7.84
  -1  -8   0    6.62    7.95
  -1  -8   1   15.14   13.88
  -1  -8   2    1.40   14.22
  -1  -8   3    7.02   14.47
  -1  -8   4    2.88   14.21
  -1  -8   5   40.06   16.87
  -1  -7  -7   18.94   13.54
  -1  -7  -6   33.14   13.69
  -1  -7  -5   29.86    5.98
  -1  -7  -4   48.12    6.41
  -1  -7  -3    2.33    5.30
  -1  -7  -2   18.26    5.53
  -1  -7  -1   33.36    5.63
  -1  -7   0   37.47    5.92
  -1  -7   1   32.29    5.74
  -1  -7   2   20.83    7.91
  -1  -7   3    4.84   13.44
  -1  -7   4   31.62   14.67
  -1  -7   5   36.88   14.93
  -1  -7   6   38.18   14.90
  -1  -7   7   21.03   15.07
  -1  -7   8   10.05   15.16
  -1  -7   9    0.61   15.72
  -1  -6 -10   45.11   14.39
  -1  -6  -9   62.45   10.20
  -1  -6  -8    1.70    7.76
  -1  -6  -7   22.56    7.86
  -1  -6  -6   74.23    6.40
  -1  -6  -5  134.08   14.41
  -1  -6  -4  165.34    5.87
  -1  -6  -3   30.56    4.43
  -1  -6  -2   60.82    8.38
  -1  -6  -1   62.27    7.65
  -1  -6   0   64.84    5.47
  -1  -6   1   49.58    5.66
  -1  -6   2   59.45   12.12
  -1  -6   3   63.53    8.99
  -1  -6   4   91.40    7.70
  -1  -6   5  113.64   15.45
  -1  -6   6   70.82    8.44
  -1  -6   7   32.61   11.09
  -1  -6   8    9.73   13.31
  -1  -6   9   21.61   14.38
  -1  -6  10    0.62   13.74
  -1  -6  11   28.33   14.99
  -1  -5 -11   22.77   14.16
  -1  -5 -10   37.89   12.47
  -1  -5  -9   90.26   12.77
  -1  -5  -8    0.45    9.74
  -1  -5  -7   28.91   10.11
  -1  -5  -6   14.67    4.29
  -1  -5  -5   22.11    3.99
  -1  -5  -4   25.23    6.23
  -1  -5  -3   17.79    4.38
  -1  -5  -2   18.10    3.99
  -1  -5  -1   52.62    3.87
  -1  -5   0   81.96    4.81
  -1  -5   1   45.20    4.53
  -1  -5   2   15.12    5.65
  -1  -5   3    2.19    4.14
  -1  -5   4    8.06    5.85
  -1  -5   5  118.84   17.57
  -1  -5   6   57.63    7.63
  -1  -5   7   28.32   15.35
  -1  -5   8   17.19    8.12
  -1  -5   9   32.20    8.48
  -1  -5  10   13.23    8.71
  -1  -5  11   22.25   13.50
  -1  -5  12   15.49   13.14
  -1  -4 -12   45.92   15.93
  -1  -4 -11   72.64   14.02
  -1  -4 -10   74.78   13.84
  -1  -4  -9   70.42   13.35
  -1  -4  -8    5.41    9.74
  -1  -4  -7   37.26    9.99
  -1  -4  -6  110.08    6.53
  -1  -4  -5  314.62   47.81
  -1  -4  -4  330.54   22.69
  -1  -4  -3   65.23    4.64
  -1  -4  -2  124.35    8.27
  -1  -4  -1   54.86    4.88
  -1  -4   0   68.95    3.27
  -1  -4   1   38.76    6.12
  -1  -4   2   61.47    5.73
  -1  -4   3  118.49    6.94
  -1  -4   4  175.34    8.26
  -1  -4   5  167.82   13.42
  -1  -4   6   95.44    7.97
  -1  -4   7   48.53    7.62
  -1  -4   8   14.91    7.06
  -1  -4   9   21.31    8.11
  -1  -4  10    9.38    7.52
  -1  -4  11   27.48   12.98
  -1  -4  12   31.24   14.73
  -1  -4  13   24.17   15.48
  -1  -3 -12   27.52   15.26
  -1  -3 -11  112.26   16.71
  -1  -3 -10  142.89   16.29
  -1  -3  -9  208.61   15.72
  -1  -3  -8   43.21   11.13
  -1  -3  -7  120.72   11.96
  -1  -3  -6  165.95    4.32
  -1  -3  -5  236.82    7.07
  -1  -3  -4  185.35   35.21
  -1  -3  -3  105.30    4.21
  -1  -3  -2  184.37   14.96
  -1  -3  -1  334.40    8.17
  -1  -3   0  424.27   21.22
  -1  -3   1  289.24    4.59
  -1  -3   2  127.66    8.46
  -1  -3   3   83.83    7.09
  -1  -3   4  101.67    6.87
  -1  -3   5  378.33   23.79
  -1  -3   6  215.10    9.35
  -1  -3   7  163.22   13.53
  -1  -3   8   51.11    7.95
  -1  -3   9   70.81    7.54
  -1  -3  10   52.39    9.40
  -1  -3  11   90.21   11.10
  -1  -3  12   64.01   19.00
  -1  -3  13   43.52   15.34
  -1  -2 -13    2.04   20.76
  -1  -2 -12   22.01   12.15
  -1  -2 -11   78.30   13.95
  -1  -2 -10  130.00   15.38
  -1  -2  -9  146.01   15.41
  -1  -2  -8   18.65    9.45
  -1  -2  -7   65.37   11.50
  -1  -2  -6   72.39    9.63
  -1  -2  -5  141.05    6.92
  -1  -2  -4   98.82    8.66
  -1  -2  -3   32.99    2.43
  -1  -2  -2  146.16    7.61
  -1  -2  -1  224.56   16.44
  -1  -2   0  189.16    4.27
  -1  -2   1  104.02    5.10
  -1  -2   2   42.14    3.03
  -1  -2   3   80.29    5.86
  -1  -2   4   49.66    5.34
  -1  -2   5  264.32    8.37
  -1  -2   6   96.15    7.32
  -1  -2   7   82.59   10.27
  -1  -2   8   10.73    5.52
  -1  -2   9   39.58    6.77
  -1  -2  10   13.19    8.02
  -1  -2  11   41.77    9.71
  -1  -2  12   31.47   12.05
  -1  -2  13   26.80   14.81
  -1  -1  -6  174.53   60.73
  -1  -1  -5  464.05   42.03
  -1  -1  -4  496.86  146.72
  -1  -1  -3  226.68   18.68
  -1  -1  -2  460.13   30.41
  -1  -1  -1  292.14   11.99
  -1  -1   0  277.90    6.29
  -1  -1   1   37.30    4.35
  -1  -1   2  129.10    4.18
  -1  -1   3  450.86    6.94
  -1  -1   4  417.55    9.65
  -1  -1   5  511.51  102.13
  -1  -1   6  197.86   33.67
  -1  -1   7  115.48   25.79
  -1  -1   8    1.47    3.10
  -1  -1   9   23.64    3.90
  -1  -1  10    9.34    8.58
  -1  -1  11   48.95    8.75
  -1  -1  12   33.34    9.11
  -1  -1  13   41.35   17.26
  -1   1 -12   26.23   10.04
  -1   1 -10   57.56    8.72
  -1   1  -7   28.19    5.51
  -1   1  -6  151.66   11.40
  -1   1  -5  389.69   48.46
  -1   1  -4  497.36   16.13
  -1   1  -3  367.87   12.36
  -1   1  -2  457.18   10.64
  -1   1  -1  393.22   14.99
  -1   1   0  614.28   24.68
  -1   1   1   26.88    2.65
  -1   1   2  172.93    7.04
  -1   1   3  461.95   29.53
  -1   1   4  353.35   53.23
  -1   1   5  581.30   48.21
  -1   1   6  167.88   22.86
  -1   1   7   89.23   38.28
  -1   1   8    7.15    5.46
  -1   1   9   16.62    3.65
  -1   1  10    4.81    5.13
  -1   1  11   38.43    8.11
  -1   1  12   25.56    7.19
  -1   1  13   47.98    9.52
  -1   2 -12   35.16   15.62
  -1   2 -11   81.95   14.35
  -1   2 -10   52.04   10.90
  -1   2  -9  131.31   14.72
  -1   2  -8   61.55    6.68
  -1   2  -7   50.46    6.49
  -1   2  -6   77.70    4.21
  -1   2  -5  108.23    4.63
  -1   2  -4  130.25    4.77
  -1   2  -3   98.95    6.27
  -1   2  -2  186.13    4.51
  -1   2  -1  296.58   17.33
  -1   2   0  748.91   63.16
  -1   2   1  195.66    5.95
  -1   2   2   79.86    3.33
  -1   2   3  134.17    5.02
  -1   2   4   40.88    3.36
  -1   2   5  345.40   15.70
  -1   2   6   78.07    5.15
  -1   2   7   76.22    7.75
  -1   2   8   11.91    4.41
  -1   2   9   37.09    4.68
  -1   2  10    8.07    7.86
  -1   2  11   46.15    9.29
  -1   2  12   14.57    9.21
  -1   2  13   31.62   15.02
  -1   3 -12   34.50   16.09
  -1   3 -11  101.02   16.56
  -1   3 -10  132.16   18.10
  -1   3  -9  214.62   12.18
  -1   3  -8  132.22    7.96
  -1   3  -7  129.11    5.88
  -1   3  -6  166.59   10.94
  -1   3  -5  205.13    6.44
  -1   3  -4  257.47   18.60
  -1   3  -3  225.17    6.24
  -1   3  -2  224.28    6.60
  -1   3  -1  347.40   12.20
  -1   3   0 1085.61   82.31
  -1   3   1  552.53   90.49
  -1   3   2  212.64   11.25
  -1   3   3   50.49    7.01
  -1   3   4   81.29    5.86
  -1   3   5  473.00   21.91
  -1   3   6  171.31    6.16
  -1   3   7  158.19    6.37
  -1   3   8   73.19    5.42
  -1   3   9   86.66    9.04
  -1   3  10   49.26    8.77
  -1   3  11   58.17   10.31
  -1   3  12   29.04    9.86
  -1   3  13   58.71   15.92
  -1   4 -12   53.42   17.82
  -1   4 -11   68.38   16.47
  -1   4 -10   60.57   14.45
  -1   4  -9   57.41   14.21
  -1   4  -8   24.44    7.04
  -1   4  -7   51.86    8.65
  -1   4  -6  126.38    6.51
  -1   4  -5  214.02   17.83
  -1   4  -4  273.04   20.62
  -1   4  -3  230.78   10.84
  -1   4  -2  117.52    5.75
  -1   4  -1  103.92   13.89
  -1   4   0  312.53   27.00
  -1   4   1   54.89    6.65
  -1   4   2   43.97    9.03
  -1   4   3   95.07   10.11
  -1   4   4  184.80   11.43
  -1   4   5  350.56   14.82
  -1   4   6  137.02   10.20
  -1   4   7   34.21    5.90
  -1   4   8   10.83    5.26
  -1   4   9   10.88    7.59
  -1   4  10    2.24    8.33
  -1   4  11   17.33    9.07
  -1   4  12   10.83    9.84
  -1   5 -11   29.07   15.43
  -1   5 -10   78.71   16.07
  -1   5  -9  110.11   15.48
  -1   5  -8   58.71   13.10
  -1   5  -7   33.49    5.67
  -1   5  -6   27.97    5.55
  -1   5  -5   32.23    5.28
  -1   5  -4   26.30    4.56
  -1   5  -3   23.50    4.19
  -1   5  -2   27.96    4.42
  -1   5  -1  100.43    4.30
  -1   5   0  396.81   28.98
  -1   5   1   91.70   20.71
  -1   5   2   40.87    9.88
  -1   5   3    1.39    8.40
  -1   5   4    2.24    7.95
  -1   5   5  114.81   11.51
  -1   5   6   19.31    8.13
  -1   5   7   25.61    8.50
  -1   6 -11   35.61   14.95
  -1   6 -10   52.73   14.40
  -1   6  -9   43.12   12.90
  -1   6  -8   24.89   11.96
  -1   6  -7   26.85    6.02
  -1   6  -6   58.50    6.22
  -1   6  -5  119.63    7.12
  -1   6  -4  126.41    7.04
  -1   6  -3   90.10    5.96
  -1   6  -2   45.87    6.06
  -1   6  -1   61.01    8.15
  -1   6   0  241.61   34.09
  -1   6   1   56.89    7.87
  -1   6   2   50.00   11.30
  -1   6   3   36.87   10.40
  -1   6   4   80.22   11.28
  -1   6   5  158.15   13.03
  -1   6   6   54.45   10.60
  -1   6   7   24.44    8.15
  -1   7  -6   24.42    8.74
  -1   7  -5   47.54   13.21
  -1   7  -4   50.35    9.02
  -1   7  -3   32.76   14.26
  -1   7  -2   22.57    8.08
  -1   7  -1   32.02    8.60
  -1   7   0  128.52   18.04
  -1   7   1   29.23    8.99
  -1   7   2   23.35   10.70
  -1   7   3    7.29   10.27
  -1   7   4   28.96   10.84
  -1   7   5   56.10   11.32
  -1   7   6   19.25   10.20
  -1   8  -5    9.06    9.27
  -1   8  -4    8.29    8.92
  -1   8  -3    5.61    8.80
  -1   8  -2    5.67    8.96
  -1   8  -1   14.29    8.98
  -1   8   0   78.60   14.53
  -1   8   1    9.50   12.11
  -1   8   2    4.83   12.04
  -1   8   3    1.89   10.86
  -1   8   4    2.12   11.17
  -1   8   5   16.86   11.51
  -1   9  -4   43.71   15.23
  -1   9  -3   42.65   15.95
  -1   9  -2   23.57   15.83
  -1   9  -1   12.15   15.19
  -1   9   0   47.22   16.49
  -1   9   1    8.93   14.15
  -1   9   2    8.07   12.91
  -1   9   3   10.73   13.91
  -1   9   4   25.20   13.61
  -1   9   5   40.48   13.65
   0  -9  -4   19.60   14.04
   0  -9  -2   13.72   12.24
   0  -9  -1   30.78   12.10
   0  -8  -6   12.40    9.35
   0  -8  -5    6.44    8.67
   0  -8  -4    0.24    8.00
   0  -8  -3    0.58    7.78
   0  -8  -2    8.92    9.62
   0  -8  -1   57.03    8.45
   0  -8   0   83.50    9.52
   0  -8   1   18.58   10.80
   0  -8   2    9.68   11.13
   0  -8   3    2.62   11.89
   0  -8   4    0.91   12.45
   0  -8   5   20.05   15.33
   0  -8   6    5.70   15.08
   0  -7  -9   19.30   13.10
   0  -7  -8   39.35   10.26
   0  -7  -7   33.28    9.05
   0  -7  -6   51.18    8.98
   0  -7  -5   48.44    8.73
   0  -7  -4   35.87    7.85
   0  -7  -3   26.05    7.35
   0  -7  -2   25.42    7.27
   0  -7  -1   74.07   10.74
   0  -7   0  133.05    8.57
   0  -7   1   31.75   10.88
   0  -7   2   14.45   10.03
   0  -7   3   18.18   11.35
   0  -7   4   36.87   11.35
   0  -7   5   98.97   13.61
   0  -7   6   33.27    9.75
   0  -7   7   20.92    9.10
   0  -7   8   27.38   15.41
   0  -7   9   16.30   15.47
   0  -6 -10   37.26   14.32
   0  -6  -9   24.89    9.23
   0  -6  -8   44.68    9.67
   0  -6  -7   36.64    8.83
   0  -6  -6   96.71   10.59
   0  -6  -5  121.48    9.36
   0  -6  -4   77.97    8.48
   0  -6  -3   63.68    7.33
   0  -6  -2   54.84    6.83
   0  -6  -1   89.46    8.39
   0  -6   0  241.96   14.93
   0  -6   1   64.67    9.28
   0  -6   2   33.46    9.71
   0  -6   3   51.28   10.20
   0  -6   4   74.15   12.20
   0  -6   5  199.40   14.32
   0  -6   6   51.88   11.67
   0  -6   7   20.71    8.40
   0  -6   8   13.19    8.96
   0  -6   9   15.63    9.26
   0  -6  10   12.88    9.69
   0  -6  11    0.39   14.07
   0  -5 -11   23.30   15.38
   0  -5 -10   53.45   15.03
   0  -5  -9   85.62    9.95
   0  -5  -8  126.56    9.39
   0  -5  -7   48.06    6.31
   0  -5  -6   45.73    6.20
   0  -5  -5   45.65    5.82
   0  -5  -4   20.06    4.01
   0  -5  -3   35.48    5.74
   0  -5  -2   75.34    4.20
   0  -5  -1  184.03    8.94
   0  -5   0  681.33   25.12
   0  -5   1  177.07   26.24
   0  -5   2   47.80    5.32
   0  -5   3    7.47    8.52
   0  -5   4    8.19    9.03
   0  -5   5  113.19   11.74
   0  -5   6   32.61    9.58
   0  -5   7   46.34    8.75
   0  -5   8   77.86    8.98
   0  -5   9   74.37   12.09
   0  -5  10   35.81    9.47
   0  -5  11   59.76   42.07
   0  -5  12    5.39   15.60
   0  -4 -13   25.14   15.49
   0  -4 -12   22.14   14.37
   0  -4 -11   42.95   14.31
   0  -4 -10   29.37   11.76
   0  -4  -9   20.32   10.82
   0  -4  -8   47.65   11.13
   0  -4  -7   36.42    9.01
   0  -4  -6  116.32    7.94
   0  -4  -5  253.22    8.82
   0  -4  -4  175.43    8.78
   0  -4  -3   98.05    7.02
   0  -4  -2   49.71    3.00
   0  -4  -1   34.96    4.20
   0  -4   0  460.42   42.76
   0  -4   1   11.56    3.00
   0  -4   2   27.50    5.13
   0  -4   3   46.10    8.49
   0  -4   4  127.95   11.42
   0  -4   5  429.45   16.58
   0  -4   6  105.86   11.76
   0  -4   7   43.94    7.30
   0  -4   8   12.42    7.40
   0  -4   9   12.72    8.60
   0  -4  10   17.74    8.17
   0  -4  11   13.46   10.07
   0  -4  12   25.45   20.28
   0  -3 -13   54.09   16.65
   0  -3 -12   47.11   15.16
   0  -3 -11   90.39   15.67
   0  -3 -10  111.94   14.69
   0  -3  -9  129.94   14.65
   0  -3  -8  270.95   14.67
   0  -3  -7  166.83   13.18
   0  -3  -6  190.20   11.55
   0  -3  -5  449.53   38.70
   0  -3  -4  221.86   10.01
   0  -3  -3  157.30    3.96
   0  -3  -2  323.09    9.01
   0  -3  -1  574.60   43.37
   0  -3   0 3437.11   96.82
   0  -3   1  725.20  100.77
   0  -3   2  317.35   11.66
   0  -3   3   63.45   14.44
   0  -3   4  138.19    9.74
   0  -3   5  648.25   20.16
   0  -3   6  176.26   12.22
   0  -3   7  159.62    9.63
   0  -3   8  172.69    8.85
   0  -3   9  170.39   15.61
   0  -3  10   95.79    7.18
   0  -3  11   66.75   10.86
   0  -3  12   21.53   10.80
   0  -2 -13   15.21   14.46
   0  -2 -12   13.46   13.75
   0  -2 -11   46.82   14.12
   0  -2 -10   55.69   13.67
   0  -2  -9   56.55   10.67
   0  -2  -8  163.38   14.77
   0  -2  -7   54.28    9.65
   0  -2  -6   95.38   11.79
   0  -2  -5  329.46    5.72
   0  -2  -4  125.79    4.93
   0  -2  -3   43.09    2.34
   0  -2  -2  109.48    9.28
   0  -2  -1  109.84    2.86
   0  -2   0 3076.38  140.34
   0  -2   1  131.99    2.82
   0  -2   2  107.85   11.57
   0  -2   3    5.49    3.84
   0  -2   4   65.76    5.55
   0  -2   5  536.68   16.69
   0  -2   6   89.68    7.09
   0  -2   7   62.50    6.68
   0  -2   8  108.85   29.82
   0  -2   9   81.31    5.63
   0  -2  10   51.50    9.89
   0  -2  11   29.96    8.92
   0  -2  12   14.94    9.89
   0  -2  13   37.11   16.03
   0  -1 -10   61.83   10.66
   0  -1  -8   52.40   10.09
   0  -1  -7   10.46    2.09
   0  -1  -6  136.43   11.31
   0  -1  -5  699.56   19.25
   0  -1  -4  357.64   35.10
   0  -1  -3  106.92    5.38
   0  -1  -2   76.65    2.69
   0  -1  -1   99.42    5.33
   0  -1   0 2504.12   26.00
   0  -1   1   55.20    5.82
   0  -1   2    8.76    3.12
   0  -1   3   25.47    3.56
   0  -1   4  258.92   23.08
   0  -1   5  843.82   59.00
   0  -1   6   81.89    3.54
   0  -1   7   36.14    6.85
   0  -1   8   47.06    3.37
   0  -1   9   35.09   17.65
   0  -1  10   39.07    7.91
   0  -1  11   33.30   10.28
   0  -1  12   22.99    7.41
   0  -1  13   35.70   25.42
   0   1 -13   49.83   15.25
   0   1 -12   15.14    7.96
   0   1  -9   33.86   12.73
   0   1  -7   38.55    9.35
   0   1  -6  162.53   11.96
   0   1  -5  733.64   20.03
   0   1  -4  305.30   33.17
   0   1  -3   36.29    8.08
   0   1  -2   10.09    2.66
   0   1  -1   60.31    4.26
   0   1   0 2552.91    9.55
   0   1   1   99.51    5.60
   0   1   2   57.91    2.54
   0   1   3  107.85    3.07
   0   1   4  380.32   42.27
   0   1   5  713.59  153.58
   0   1   6   95.74   17.82
   0   1   8   52.28    4.23
   0   1   9   26.12   21.81
   0   1  10   28.40    5.91
   0   1  11   35.35    7.05
   0   1  12   30.39   14.73
   0   1  13   52.91   27.54
   0   2 -12   11.21   11.46
   0   2 -11   34.80    7.80
   0   2 -10   52.36    8.28
   0   2  -9   79.96    7.52
   0   2  -8   81.04    8.22
   0   2  -7   60.40    6.02
   0   2  -6   62.63    6.46
   0   2  -5  468.62   10.16
   0   2  -4   70.57    6.84
   0   2  -3    3.16    3.29
   0   2  -2   81.42    8.87
   0   2  -1  136.64    2.89
   0   2   0 3248.51   89.67
   0   2   1   97.62    3.71
   0   2   2  131.29   13.58
   0   2   3   43.28    3.66
   0   2   4  115.20    8.18
   0   2   5  344.24   11.90
   0   2   6   87.48    4.46
   0   2   7   48.20    3.06
   0   2   8  166.48   12.72
   0   2   9   82.37    8.15
   0   2  10   50.67    9.26
   0   2  11   23.40    8.86
   0   2  12   12.37    9.39
   0   2  13   42.42   16.11
   0   3 -12   28.51   16.02
   0   3 -11   46.85   15.59
   0   3 -10   98.14    8.90
   0   3  -9  147.62   17.15
   0   3  -8  144.48    8.43
   0   3  -7  138.87   13.55
   0   3  -6  177.37    7.99
   0   3  -5  568.52   12.99
   0   3  -4  127.96    5.42
   0   3  -3   57.06    3.85
   0   3  -2  305.90    9.13
   0   3  -1  645.55   52.81
   0   3   0 3524.01   89.26
   0   3   1  565.93   10.57
   0   3   2  302.44   28.91
   0   3   3  158.54    6.79
   0   3   4  231.31   12.29
   0   3   5  344.25   45.06
   0   3   6  212.50   19.44
   0   3   7  126.47   13.66
   0   3   8  267.69   10.73
   0   3   9  153.19   27.74
   0   3  10  118.24   10.76
   0   3  11   68.83   10.22
   0   3  12   38.83   10.17
   0   4 -12    7.74   14.71
   0   4 -11   22.01   13.93
   0   4 -10   16.50    8.17
   0   4  -9   10.94    7.17
   0   4  -8   11.73    7.01
   0   4  -7   19.92    6.34
   0   4  -6   72.88    7.37
   0   4  -5  409.56   11.27
   0   4  -4  108.66    5.93
   0   4  -3   39.52    6.32
   0   4  -2   25.28    6.58
   0   4  -1   14.91    3.54
   0   4   0  463.61   26.68
   0   4   1   23.43    3.95
   0   4   2   43.13    4.95
   0   4   3   76.02    8.57
   0   4   4  136.77    9.56
   0   4   5  208.82   21.66
   0   4   6   97.65    6.38
   0   4   7   45.02    8.74
   0   4   8   56.90   12.27
   0   4   9   26.99   11.08
   0   4  10   32.14   12.51
   0   4  11   23.18   12.82
   0   4  12   21.97   14.40
   0   5 -11   16.67   14.30
   0   5 -10   38.27   13.36
   0   5  -9   64.19    9.68
   0   5  -8   49.17    7.64
   0   5  -7   41.87    8.11
   0   5  -6   26.21    6.89
   0   5  -5  120.52   12.92
   0   5  -4    8.55    4.73
   0   5  -3    7.85    4.47
   0   5  -2   46.05    4.44
   0   5  -1  152.32   19.45
   0   5   0  740.97   30.59
   0   5   1  152.99    7.67
   0   5   2   62.63    4.25
   0   5   3   18.42    6.17
   0   5   4   17.96    7.07
   0   5   5   60.83    8.54
   0   5   6   44.85    7.26
   0   5   7   50.73    7.50
   0   5   8  134.78   14.00
   0   5   9   49.15   13.24
   0   5  10   35.88   13.26
   0   5  11   13.28   13.39
   0   6 -11   28.64   14.03
   0   6 -10   11.22   12.58
   0   6  -9   33.68   11.91
   0   6  -8   26.15   13.40
   0   6  -7   31.16    8.30
   0   6  -6   42.36    8.33
   0   6  -5  174.46    9.89
   0   6  -4   64.65    6.33
   0   6  -3   31.72    5.13
   0   6  -2   23.77    8.56
   0   6  -1   59.14    5.17
   0   6   0  256.05    8.40
   0   6   1   81.82    9.18
   0   6   2   49.11    4.69
   0   6   3   55.13    7.70
   0   6   4  104.63   11.81
   0   6   5  119.84   11.57
   0   6   6   85.88   10.18
   0   7  -9   27.34   13.82
   0   7  -8    8.02   10.92
   0   7  -7   29.30    8.78
   0   7  -6   29.67    8.33
   0   7  -5   92.75    9.50
   0   7  -4   32.20    7.08
   0   7  -3   19.20    8.30
   0   7  -2   20.80    8.07
   0   7  -1   47.99    9.16
   0   7   0  158.44   12.75
   0   7   1   53.71    8.92
   0   7   2   23.37    8.51
   0   7   3   35.65    8.35
   0   7   4   38.78   10.62
   0   7   5   41.19   10.72
   0   7   6   60.72   10.93
   0   8  -7   11.91   14.35
   0   8  -6    8.93   13.82
   0   8  -5   29.09   13.81
   0   8  -4    4.83   13.06
   0   8  -3    6.66   12.09
   0   8  -2    4.72    9.33
   0   8  -1   23.47    9.28
   0   8   0   89.92   11.87
   0   8   1   43.72    9.67
   0   8   2   11.96   10.29
   0   8   3   12.36   11.10
   0   8   4    9.28   10.77
   0   8   5    4.24   10.70
   0   9  -3   12.95   15.34
   0   9  -2    6.59   14.86
   0   9  -1    2.03   14.43
   0   9   0   19.26   14.87
   0   9   1    4.38   12.99
   0   9   2    5.72   13.18
   0   9   3   23.04   13.42
   0   9   4   44.13   14.13
   1  -9  -5   55.00   15.79
   1  -9  -4   23.56   14.50
   1  -9  -3    9.08   13.73
   1  -9  -2    7.02    9.32
   1  -9  -1    2.48   13.35
   1  -9   0   20.00   13.32
   1  -9   1    8.06   13.96
   1  -9   2   10.59   14.37
   1  -9   3   15.77   14.43
   1  -8  -7    7.73   13.80
   1  -8  -6   14.19   12.49
   1  -8  -5   22.92    9.67
   1  -8  -4    1.09    8.49
   1  -8  -3    0.22    8.73
   1  -8  -2   11.61    9.00
   1  -8  -1   24.05    8.85
   1  -8   0   76.93   14.48
   1  -8   1   35.18   13.29
   1  -8   2   16.85   12.86
   1  -8   3    4.49   12.37
   1  -8   4    8.01   13.26
   1  -8   5   13.19   13.94
   1  -8   6    7.72   13.18
   1  -7  -9    9.27   13.01
   1  -7  -8   29.98    9.79
   1  -7  -7   21.64    9.24
   1  -7  -6   30.81    8.67
   1  -7  -5   68.39    9.59
   1  -7  -4   21.69    8.31
   1  -7  -3   12.87    7.84
   1  -7  -2   26.06    7.83
   1  -7  -1   22.53    8.11
   1  -7   0  129.32   13.83
   1  -7   1   28.96   11.57
   1  -7   2   28.76   11.07
   1  -7   3   35.73   12.09
   1  -7   4   48.34   13.44
   1  -7   5   57.78   14.24
   1  -7   6   32.29   12.71
   1  -7   7   12.96   13.05
   1  -7   8   20.73   14.32
   1  -7   9   36.35   11.59
   1  -6 -10    6.58    9.98
   1  -6  -9   13.03   10.05
   1  -6  -8   32.70   12.50
   1  -6  -7   36.05    8.73
   1  -6  -6   54.48    8.94
   1  -6  -5  209.39   34.16
   1  -6  -4   59.68    8.23
   1  -6  -3   22.93    7.25
   1  -6  -2   37.96    7.09
   1  -6  -1   47.01    7.11
   1  -6   0  212.30   25.28
   1  -6   1   49.14   11.31
   1  -6   2   57.48   11.11
   1  -6   3   91.56   12.46
   1  -6   4  163.11   16.02
   1  -6   5  111.94   14.74
   1  -6   6   78.97   12.94
   1  -6   7   28.67   12.00
   1  -6   8   37.40   13.33
   1  -6   9   57.66   10.63
   1  -6  10   54.69    9.34
   1  -5 -11   14.06   13.93
   1  -5 -10    9.72   13.81
   1  -5  -9   38.60    9.29
   1  -5  -8   41.84    8.79
   1  -5  -7   32.53    6.81
   1  -5  -6   35.59    5.15
   1  -5  -5  109.89    5.69
   1  -5  -4    2.60    2.87
   1  -5  -3    0.11    5.50
   1  -5  -2   24.99    5.96
   1  -5  -1  109.46    8.17
   1  -5   0  386.56   16.15
   1  -5   1   91.53    4.79
   1  -5   2   32.57    6.84
   1  -5   3   24.24    5.64
   1  -5   4   33.37   10.37
   1  -5   5   35.57   11.77
   1  -5   6   16.67   10.49
   1  -5   7   38.26   11.43
   1  -5   8   61.46   13.96
   1  -5   9   88.19    8.60
   1  -5  10   70.16    9.12
   1  -5  11   28.45   20.51
   1  -4 -12   19.05   10.11
   1  -4 -11   24.88    8.66
   1  -4 -10   12.95    7.79
   1  -4  -9   12.07    7.32
   1  -4  -8    5.61    6.66
   1  -4  -7   41.94    6.90
   1  -4  -6   79.14    5.91
   1  -4  -5  294.77    9.13
   1  -4  -4  115.95    3.57
   1  -4  -3   84.46    3.36
   1  -4  -2   38.34    4.31
   1  -4  -1   43.81    6.73
   1  -4   0  324.75   10.39
   1  -4   1  102.78    5.42
   1  -4   2  111.29    5.33
   1  -4   3  231.50    8.37
   1  -4   4  296.95   16.43
   1  -4   5  190.40   10.04
   1  -4   6  105.62   12.10
   1  -4   7   36.43   11.55
   1  -4   8   40.10    9.14
   1  -4   9   52.99    7.75
   1  -4  10   59.18   10.42
   1  -4  11   69.15   11.74
   1  -4  12   28.69   12.18
   1  -3 -13   42.46   15.91
   1  -3 -12   27.87   13.76
   1  -3 -11  100.46   16.04
   1  -3 -10   47.10   12.35
   1  -3  -9   97.03   12.49
   1  -3  -8   53.49   10.88
   1  -3  -7  172.36    7.28
   1  -3  -6  179.11    6.14
   1  -3  -5  521.23   18.31
   1  -3  -4   70.08    4.25
   1  -3  -3   36.76    2.32
   1  -3  -2  156.40    7.62
   1  -3  -1  420.14   44.10
   1  -3   0 1393.12  143.10
   1  -3   1  367.99   20.74
   1  -3   2  205.32    6.32
   1  -3   3  246.38    6.46
   1  -3   4  274.08    7.90
   1  -3   5  229.13   13.55
   1  -3   6  151.59   13.66
   1  -3   7  160.04   24.01
   1  -3   8  148.92   10.34
   1  -3   9  226.98   12.08
   1  -3  10  139.89   12.90
   1  -3  11  117.69   12.41
   1  -3  12   35.92   12.38
   1  -2 -13   33.84   15.57
   1  -2 -12   25.30   13.56
   1  -2 -11   33.43   11.09
   1  -2 -10    9.91   11.54
   1  -2  -9   29.99   10.43
   1  -2  -8   23.16    9.47
   1  -2  -7   84.19    5.38
   1  -2  -6   94.67   12.43
   1  -2  -5  384.49   13.35
   1  -2  -4   24.00    3.29
   1  -2  -3  125.53    6.09
   1  -2  -2   81.14    2.60
   1  -2  -1  160.25    4.99
   1  -2   0  760.89   30.33
   1  -2   1  261.39   20.20
   1  -2   2  165.03    3.59
   1  -2   3  100.55    3.87
   1  -2   4  143.98   15.99
   1  -2   5  106.13    5.84
   1  -2   6   83.93   11.80
   1  -2   7   48.90    8.35
   1  -2   8   67.08   13.37
   1  -2   9  123.36    7.68
   1  -2  10   96.08   10.19
   1  -2  11   90.89   11.24
   1  -2  12   22.14   10.36
   1  -1 -12   35.89   12.08
   1  -1 -10    1.51   11.34
   1  -1  -9   28.16    9.17
   1  -1  -8    4.60    3.80
   1  -1  -7   84.48   40.50
   1  -1  -6  184.96    5.96
   1  -1  -5  586.35   66.28
   1  -1  -4  315.90   31.08
   1  -1  -3  468.52   52.28
   1  -1  -2  156.50    3.44
   1  -1  -1   43.05    2.30
   1  -1   0  597.70   21.12
   1  -1   1  314.23   11.22
   1  -1   2  389.00   57.62
   1  -1   3  397.48   20.38
   1  -1   4  432.05   57.97
   1  -1   5  312.74   44.01
   1  -1   6  185.33   31.82
   1  -1   7   80.34    4.42
   1  -1   8   40.07    4.80
   1  -1   9   96.35    9.08
   1  -1  10  148.49   26.13
   1  -1  11   91.88   13.17
   1  -1  12   46.07    9.18
   1  -1  13    6.01   14.01
   1   1 -12   30.77   13.94
   1   1 -10    6.80    9.70
   1   1  -8    1.60   27.80
   1   1  -7   40.95    5.49
   1   1  -6   90.13    8.53
   1   1  -5  364.15   14.83
   1   1  -4  383.77    7.93
   1   1  -3  376.13   13.29
   1   1  -2  104.68    4.03
   1   1  -1   67.04    7.48
   1   1   0  418.76   24.49
   1   1   1  231.97    5.62
   1   1   2  381.14   10.71
   1   1   3  179.30   39.18
   1   1   4  464.57  128.01
   1   1   5  478.68  100.30
   1   1   6  205.13   82.30
   1   1   7   59.66    6.90
   1   1   8   52.36   11.37
   1   1   9  133.01    9.89
   1   1  10   92.72    8.86
   1   1  11   96.40   17.76
   1   1  12   51.44    9.40
   1   2 -12   24.49    8.60
   1   2 -11   54.63   15.05
   1   2 -10   10.99   10.17
   1   2  -9   24.49   12.39
   1   2  -8    7.14    9.01
   1   2  -7   71.30   12.05
   1   2  -6  106.66   11.67
   1   2  -5  277.99   28.13
   1   2  -4   37.38    3.98
   1   2  -3   52.69    4.02
   1   2  -2   33.18    2.59
   1   2  -1  102.48    7.81
   1   2   0  232.43    6.75
   1   2   1  187.59   14.90
   1   2   2  116.79    5.67
   1   2   3   32.15    4.59
   1   2   4   99.15    8.04
   1   2   5  129.62    7.82
   1   2   6   62.97    7.55
   1   2   7   45.36    7.47
   1   2   8   36.89    7.64
   1   2   9  177.00   14.53
   1   2  10   81.40    9.56
   1   2  11   73.49   10.67
   1   2  12   20.54    9.26
   1   3 -12   59.02   10.11
   1   3 -11   83.23   10.45
   1   3 -10   31.11    8.49
   1   3  -9   60.57    7.95
   1   3  -8   35.50    7.82
   1   3  -7  143.18   17.66
   1   3  -6  206.88   21.36
   1   3  -5  349.70   24.10
   1   3  -4   95.25    4.85
   1   3  -3   79.16    3.42
   1   3  -2  116.48    6.30
   1   3  -1  293.09   10.88
   1   3   0  461.80   22.10
   1   3   1  328.90    7.14
   1   3   2  170.86   10.06
   1   3   3  118.17    7.86
   1   3   4  216.91   16.06
   1   3   5  231.13   11.52
   1   3   6  152.82   12.48
   1   3   7  144.68   12.23
   1   3   8   27.71    9.70
   1   3   9  248.41   12.17
   1   3  10  146.44   11.61
   1   3  11   98.84   11.07
   1   3  12   26.09   17.13
   1   4 -12   28.47   16.85
   1   4 -11   39.07    9.68
   1   4 -10    6.51    7.94
   1   4  -9   23.44    8.07
   1   4  -8    1.48    7.12
   1   4  -7   52.07    7.63
   1   4  -6   86.89    9.64
   1   4  -5  171.58   20.75
   1   4  -4  140.69   11.11
   1   4  -3   98.92    7.20
   1   4  -2   43.37    5.15
   1   4  -1   42.83    3.96
   1   4   0   80.44    4.05
   1   4   1   53.10    5.30
   1   4   2  105.25    6.74
   1   4   3   69.40    6.35
   1   4   4  276.03    8.84
   1   4   5  219.66   13.18
   1   4   6   97.93   10.81
   1   4   7   42.25   10.62
   1   4   8   13.57   10.33
   1   4   9   97.84   14.17
   1   4  10   52.89   13.44
   1   4  11   75.96   14.64
   1   4  12   34.22   15.28
   1   5 -11   25.57   14.71
   1   5 -10    9.57   11.40
   1   5  -9   24.55   10.46
   1   5  -8   13.10    7.97
   1   5  -7   30.02   10.09
   1   5  -6   56.40    7.72
   1   5  -5  119.51    9.15
   1   5  -4   10.42    6.12
   1   5  -3    7.54    5.54
   1   5  -2   12.95    5.50
   1   5  -1   59.53    8.59
   1   5   0   95.93    7.47
   1   5   1   48.66    5.49
   1   5   2   19.51    4.24
   1   5   3   26.04    5.64
   1   5   4   15.01   10.46
   1   5   6   16.31    8.47
   1   5   7    7.81    8.93
   1   5   8    2.11   10.12
   1   5   9   97.56   13.46
   1   5  10   32.34   12.76
   1   5  11    9.97   12.60
   1   6 -10   22.18   10.12
   1   6  -9   26.45    9.67
   1   6  -8   27.31    9.01
   1   6  -7   31.94    8.85
   1   6  -6   70.38    8.81
   1   6  -5  114.46   17.49
   1   6  -4   92.34   10.36
   1   6  -3   41.68    7.52
   1   6  -2   45.05    6.53
   1   6  -1   47.40    6.69
   1   6   0   54.65    6.28
   1   6   1   54.01    8.27
   1   6   2   54.48   13.04
   1   6   3   27.62    6.32
   1   6   4  144.60   14.64
   1   7  -9   10.15    9.68
   1   7  -8    9.84    9.56
   1   7  -7   18.91    9.26
   1   7  -6   47.01    9.48
   1   7  -5   53.36    8.50
   1   7  -4   18.58    8.15
   1   7  -3   14.08    6.92
   1   7  -2   21.02    6.77
   1   7  -1   31.43    8.85
   1   7   0   42.43   12.98
   1   7   1   25.71   12.88
   1   7   2   17.75   12.72
   1   7   3   14.80   11.60
   1   7   4   33.08   14.59
   1   8  -7    5.29   15.03
   1   8  -6   22.07   14.59
   1   8  -5   12.95   13.38
   1   8  -4    6.10   13.27
   1   8  -3    0.24   13.82
   1   8  -2    4.93   12.60
   1   8  -1    8.99   12.22
   1   8   0   13.41   13.44
   1   8   1    0.13   12.70
   1   8   2    5.58   13.32
   1   8   3   30.43   13.81
   2  -9  -3   16.00   15.18
   2  -9  -2   17.90   15.62
   2  -9  -1   18.20   15.80
   2  -9   0   13.08   15.64
   2  -9   1   20.79   15.75
   2  -9   2   20.21   16.43
   2  -9   3   24.63   17.80
   2  -8  -6    7.87   13.64
   2  -8  -5   36.50   10.57
   2  -8  -4    3.90    9.60
   2  -8  -3    1.28    9.04
   2  -8  -2    0.70   12.43
   2  -8  -1    2.27   12.34
   2  -8   0    1.94   12.60
   2  -8   1   15.61   13.07
   2  -8   2    2.63   13.23
   2  -8   3    7.51   13.98
   2  -8   4   22.47   15.29
   2  -8   5    0.90   14.69
   2  -8   6    7.84   11.02
   2  -7  -8   16.33   10.12
   2  -7  -7   22.16    9.38
   2  -7  -6   26.78    9.27
   2  -7  -5   40.26   10.80
   2  -7  -4   31.83    8.71
   2  -7  -3   19.89   14.26
   2  -7  -2   38.79    9.08
   2  -7  -1   31.10   11.92
   2  -7   0   21.46   12.80
   2  -7   1   21.00   11.87
   2  -7   2    9.65   11.66
   2  -7   3   20.76   12.47
   2  -7   4   48.81   14.97
   2  -7   5   27.26   14.66
   2  -7   6   20.38    9.88
   2  -7   7    5.60   13.77
   2  -7   8    2.19   14.15
   2  -6 -10   19.62   13.93
   2  -6  -9   40.76   10.09
   2  -6  -8   38.23   10.52
   2  -6  -7   60.10    9.94
   2  -6  -6   81.54    9.07
   2  -6  -5   77.63    9.70
   2  -6  -4   67.95    9.05
   2  -6  -3   53.63    8.45
   2  -6  -2   75.86    9.95
   2  -6  -1   82.45   12.27
   2  -6   0   54.37   11.81
   2  -6   1   66.34   12.26
   2  -6   2   43.84   11.14
   2  -6   3   59.27   12.89
   2  -6   4  146.98   15.88
   2  -6   5  124.23   15.90
   2  -6   6   52.37    9.97
   2  -6   7   21.41   13.47
   2  -6   8    1.31    9.19
   2  -6   9   58.03   15.84
   2  -5 -11   25.75   10.03
   2  -5 -10    4.59    9.17
   2  -5  -9    9.25    8.93
   2  -5  -8   10.52    7.97
   2  -5  -7   26.99    8.30
   2  -5  -6   56.15    8.56
   2  -5  -5  120.50    9.28
   2  -5  -4   10.62    6.51
   2  -5  -3   13.26    6.69
   2  -5  -2   30.14    4.43
   2  -5  -1   23.29    6.81
   2  -5   0    5.22    8.75
   2  -5   1   16.18    9.13
   2  -5   2    2.97    9.23
   2  -5   3   36.96   11.07
   2  -5   4   55.23   12.59
   2  -5   5   20.40   11.10
   2  -5   6    5.94   10.77
   2  -5   7   11.83    7.83
   2  -5   8    9.07    9.02
   2  -5   9   48.00   10.95
   2  -5  10   22.98   11.11
   2  -5  11   13.90   16.85
   2  -4 -12   54.99   15.25
   2  -4 -11   78.23   14.71
   2  -4 -10   39.03    8.18
   2  -4  -9   55.27    8.30
   2  -4  -8   43.93    6.49
   2  -4  -7   92.86    6.62
   2  -4  -6  105.35    5.74
   2  -4  -5   81.86    9.34
   2  -4  -4  132.52    6.08
   2  -4  -3  137.01   12.05
   2  -4  -2  156.84    5.69
   2  -4  -1  160.72    5.11
   2  -4   0  113.22   10.33
   2  -4   1   74.08   10.20
   2  -4   2  110.00   11.19
   2  -4   3   84.74    6.94
   2  -4   4  281.51   16.02
   2  -4   5  168.64   12.16
   2  -4   6   43.99   11.17
   2  -4   7   40.75   15.29
   2  -4   8    3.00    7.79
   2  -4   9  107.55   11.00
   2  -4  10   58.31   11.03
   2  -4  11   27.49   13.96
   2  -4  12   23.27   15.46
   2  -3 -13   51.92   11.08
   2  -3 -12   67.35   10.79
   2  -3 -11  110.30   10.91
   2  -3 -10   66.35    8.84
   2  -3  -9   59.03   11.66
   2  -3  -8   85.21   11.29
   2  -3  -7  148.21   22.27
   2  -3  -6  225.47   45.94
   2  -3  -5  231.72   10.57
   2  -3  -4  185.52   15.50
   2  -3  -3  159.09    4.19
   2  -3  -2  219.92    7.69
   2  -3  -1  144.62    7.12
   2  -3   0  125.27    7.71
   2  -3   1   88.52    6.17
   2  -3   2  166.22   13.94
   2  -3   3  118.26    4.16
   2  -3   4  353.61   11.39
   2  -3   5  235.94    9.83
   2  -3   6   77.52   12.09
   2  -3   7   43.76    8.09
   2  -3   8    0.87    8.60
   2  -3   9  193.99   12.56
   2  -3  10   93.95   10.86
   2  -3  11   38.40   11.08
   2  -3  12   14.74   16.44
   2  -2 -13   29.99    8.80
   2  -2 -12   48.91    9.40
   2  -2 -11   69.17    9.33
   2  -2 -10   30.51    8.38
   2  -2  -9   27.75    6.90
   2  -2  -8   43.05    8.95
   2  -2  -7  104.10    7.75
   2  -2  -6  142.54    6.60
   2  -2  -5  120.32   12.02
   2  -2  -4   76.19    4.03
   2  -2  -3   70.57    5.97
   2  -2  -2  162.40    7.14
   2  -2  -1   80.74    6.35
   2  -2   0   59.51    5.84
   2  -2   1   14.92    2.61
   2  -2   2   41.14    3.20
   2  -2   3   21.93    2.99
   2  -2   4  219.91   10.64
   2  -2   5  109.48    7.59
   2  -2   6   11.59    6.19
   2  -2   7    3.27   18.30
   2  -2   8   22.83    7.86
   2  -2   9  106.18   10.35
   2  -2  10   44.62    9.85
   2  -2  11   15.83   16.87
   2  -2  12    0.33   10.05
   2  -1 -10   96.21   13.66
   2  -1  -9  108.02   14.10
   2  -1  -7  151.50   13.12
   2  -1  -6  145.93   14.08
   2  -1  -5  117.98   16.03
   2  -1  -4  227.83    7.64
   2  -1  -3  186.14   12.90
   2  -1  -2  399.13   35.35
   2  -1  -1  281.32   52.53
   2  -1   0  342.58   25.98
   2  -1   1  106.65   19.31
   2  -1   2  146.93   10.81
   2  -1   3   12.13    6.89
   2  -1   4  541.73   85.95
   2  -1   5  237.37   22.47
   2  -1   6   47.10    3.93
   2  -1   7   16.74    3.88
   2  -1   8    7.21    5.62
   2  -1   9  132.77   25.52
   2  -1  10   55.82   13.69
   2  -1  11   37.86    8.90
   2  -1  12   20.42    7.19
   2   1 -13   38.96   14.02
   2   1 -10   93.03   14.66
   2   1  -9    1.65   14.60
   2   1  -8   78.92   10.19
   2   1  -7  146.73   14.16
   2   1  -6  120.20   10.56
   2   1  -5  132.13    9.89
   2   1  -4  245.93   48.53
   2   1  -3  217.24   32.15
   2   1  -2  582.82   41.84
   2   1  -1  426.46   12.53
   2   1   0  493.00   15.17
   2   1   1  140.81   19.15
   2   1   2  144.08   11.45
   2   1   3   42.72    2.90
   2   1   4  636.14   98.75
   2   1   5  302.34   25.42
   2   1   6   63.48    4.64
   2   1   7   28.12    9.00
   2   1   8    2.93    5.23
   2   1   9  118.97    9.18
   2   1  10   58.56   24.79
   2   1  11   28.20   13.55
   2   1  12   38.78    8.70
   2   2 -13   51.27   14.49
   2   2 -12   65.72   16.19
   2   2 -11   67.11   14.99
   2   2 -10   59.71   14.25
   2   2  -9   45.46   11.55
   2   2  -8   46.34   12.43
   2   2  -7   82.14   11.80
   2   2  -5  118.93    8.84
   2   2  -4   88.75    4.43
   2   2  -3   63.49    4.00
   2   2  -2  283.00   10.98
   2   2  -1   84.09    7.09
   2   2   0  129.06   21.51
   2   2   1   11.37    2.65
   2   2   2   35.20    3.23
   2   2   3   11.06    3.11
   2   2   4  371.32   39.90
   2   2   5  104.46    9.22
   2   2   6    8.06    8.25
   2   2   7   17.56    8.36
   2   2   8   29.69    9.32
   2   2   9   80.64   11.21
   2   2  10   38.82    8.98
   2   2  11    8.11    8.50
   2   2  12   19.31   10.28
   2   3 -13   45.58   15.34
   2   3 -12   76.95   11.80
   2   3 -11   82.37   10.60
   2   3 -10   86.12    9.96
   2   3  -9   60.43    9.71
   2   3  -8   74.90    7.80
   2   3  -7  155.08   10.11
   2   3  -6  168.15    7.71
   2   3  -5  209.88    7.01
   2   3  -4  212.20    5.29
   2   3  -3  180.16   14.83
   2   3  -2  413.20    7.05
   2   3  -1  143.95   19.57
   2   3   0  230.44    8.95
   2   3   1   35.42    6.39
   2   3   2  105.17    4.42
   2   3   3   74.34    4.32
   2   3   4  459.66   55.49
   2   3   5  159.25   11.18
   2   3   6   76.39    9.37
   2   3   7   44.46   10.44
   2   3   8   19.24    9.54
   2   3   9  102.10   14.41
   2   3  10   72.06   13.18
   2   3  11   32.54   12.63
   2   3  12   22.91   14.79
   2   4 -12   46.85   15.52
   2   4 -11   61.82   11.44
   2   4 -10   64.55    9.99
   2   4  -9   56.14    8.97
   2   4  -8   58.12    9.34
   2   4  -7  117.24   11.49
   2   4  -6   76.26    7.88
   2   4  -5   83.47    8.23
   2   4  -4  104.30    4.18
   2   4  -3  121.65    4.82
   2   4  -2  318.76   21.42
   2   4  -1  191.47    8.52
   2   4   0  270.35   42.67
   2   4   1   67.60    6.23
   2   4   2  109.83   15.85
   2   4   3   54.19    4.54
   2   4   4  260.58   14.75
   2   4   5  127.69    7.59
   2   4   6   46.44    9.31
   2   4   7   22.64    9.03
   2   4   8   10.91    9.70
   2   4   9   66.07   12.81
   2   4  10   57.46   13.81
   2   4  11   21.00   13.14
   2   5 -12   27.06   15.00
   2   5 -11   18.07   13.39
   2   5 -10    7.90    9.46
   2   5  -9    6.12    8.80
   2   5  -8    5.23    8.11
   2   5  -7   47.42    8.72
   2   5  -6   68.62    8.65
   2   5  -5   75.61    7.93
   2   5  -4   41.90    7.78
   2   5  -3   28.12    6.75
   2   5  -2   78.62    7.64
   2   5  -1   14.75    6.48
   2   5   0   13.73    5.84
   2   5   1    1.95    5.44
   2   5   2    7.19    5.82
   2   5   3    8.67    5.98
   2   5   4   95.55    7.89
   2   5   5   30.93    8.71
   2   5   6    7.53    7.71
   2   5   7    0.32    8.51
   2   5   8   31.34   10.56
   2   5   9   14.76   11.80
   2   5  10    8.77   11.26
   2   5  11    0.51   12.44
   2   6 -10   42.21   15.85
   2   6  -9   42.63   10.63
   2   6  -8   41.67    9.65
   2   6  -7  102.10   10.57
   2   6  -6   48.67    9.11
   2   6  -5   69.97    9.17
   2   6  -4   86.41   12.79
   2   6  -3   94.23    9.27
   2   6  -2  175.51   10.61
   2   6  -1   94.29    8.56
   2   6   0   99.24    8.97
   2   6   1   57.73    7.35
   2   6   2   64.30    7.42
   2   6   3   43.08    7.84
   2   6   4  126.09   15.55
   2   6   5   91.11   14.93
   2   7  -8   11.97   10.22
   2   7  -7   60.08   11.12
   2   7  -6   21.31    9.56
   2   7  -5   26.10    9.02
   2   7  -4   26.14    8.31
   2   7  -3   44.19    8.44
   2   7  -2   96.62    9.20
   2   7  -1   43.78    7.91
   2   7   0   30.34   12.03
   2   7   1   28.06    7.54
   2   7   2   17.72    7.10
   2   7   3   29.20   13.07
   2   7   4   70.83   15.17
   2   7   5   44.40   14.82
   2   8  -7   16.12   12.82
   2   8  -5   10.11   13.81
   2   8  -4   16.48   14.52
   2   8  -3   16.05   14.53
   2   8  -2   34.63   14.24
   2   8  -1    1.30   12.71
   2   8   0    3.67   14.28
   2   8   1    4.38   12.38
   2   8   2   14.18   13.77
   2   8   3    1.12   14.24
   2   8   4   11.18   14.62
   3  -8  -5    6.35   14.08
   3  -8  -4    9.36   14.96
   3  -8  -3    2.17   14.09
   3  -8  -2   16.00   14.41
   3  -8  -1    0.40   14.20
   3  -8   0    4.33   14.22
   3  -8   1    0.20   14.43
   3  -8   2    5.46   14.64
   3  -8   3    3.67   15.71
   3  -8   4   18.61   16.38
   3  -7  -7   46.68   11.46
   3  -7  -6   22.32   10.22
   3  -7  -5   11.75    9.51
   3  -7  -4   47.05   10.13
   3  -7  -3   46.37   14.07
   3  -7  -2   82.27   15.17
   3  -7  -1   21.70   12.63
   3  -7   0   35.18   13.85
   3  -7   1   28.38   13.84
   3  -7   2   28.11   13.86
   3  -7   3   21.11   13.78
   3  -7   4   63.55   15.93
   3  -7   5   38.92   15.69
   3  -7   6   17.08   15.78
   3  -7   7   13.62   14.90
   3  -6  -9   35.72   10.82
   3  -6  -8   70.45   10.90
   3  -6  -7  110.55   11.31
   3  -6  -6   31.45    9.37
   3  -6  -5   28.74    8.71
   3  -6  -4   78.95    9.28
   3  -6  -3   69.93    9.38
   3  -6  -2  166.67   15.63
   3  -6  -1  102.96   14.75
   3  -6   0  110.07   14.42
   3  -6   1   61.28   12.78
   3  -6   2   65.22   13.83
   3  -6   3   65.55   14.31
   3  -6   4   88.43   16.00
   3  -6   5   69.05   15.38
   3  -6   6   46.56   15.25
   3  -6   7   35.64   14.74
   3  -6   8   49.29   16.23
   3  -5 -11    3.35   13.86
   3  -5 -10   14.87    9.83
   3  -5  -9   11.21    8.63
   3  -5  -8   22.92    8.90
   3  -5  -7   77.75    9.49
   3  -5  -6   18.13    7.65
   3  -5  -5   24.51    7.90
   3  -5  -4   37.03    7.56
   3  -5  -3   34.51    7.82
   3  -5  -2   97.52   12.10
   3  -5  -1   28.07   10.65
   3  -5   0   30.83   11.36
   3  -5   1   25.37   10.30
   3  -5   2   19.92   10.57
   3  -5   3   34.53   11.77
   3  -5   4  114.54   14.63
   3  -5   5   70.63   15.42
   3  -5   6   14.18   12.86
   3  -5   7   19.30   12.51
   3  -5   8   38.83   14.25
   3  -5   9    1.52   14.23
   3  -4 -12   24.03   13.51
   3  -4 -11   45.91   10.74
   3  -4 -10   98.68   11.04
   3  -4  -9   55.09   16.67
   3  -4  -8   78.04    9.67
   3  -4  -7  165.43   10.91
   3  -4  -6   37.82    7.54
   3  -4  -5   40.15    7.20
   3  -4  -4   54.68    4.44
   3  -4  -3  119.57   15.74
   3  -4  -2  353.76   16.96
   3  -4  -1  160.77   13.18
   3  -4   0  181.42   13.95
   3  -4   1   62.92    2.68
   3  -4   2   92.67    5.20
   3  -4   3   69.92    5.62
   3  -4   4  148.09    8.64
   3  -4   5   76.44    7.39
   3  -4   6   51.31   13.95
   3  -4   7   41.23    8.52
   3  -4   8   56.25    9.24
   3  -4   9   73.78   10.75
   3  -4  10   44.82   11.06
   3  -4  11   12.73   14.14
   3  -3 -12   36.20   12.94
   3  -3 -11   52.65   13.13
   3  -3 -10   73.87    7.11
   3  -3  -9   72.13   14.24
   3  -3  -8   80.37   12.57
   3  -3  -7  293.74   15.57
   3  -3  -6   82.15    5.54
   3  -3  -5  117.40    7.84
   3  -3  -4  117.13    8.27
   3  -3  -3  179.77   11.43
   3  -3  -2  567.39   22.97
   3  -3  -1  223.41   12.29
   3  -3   0  246.51   14.51
   3  -3   1  126.95    6.00
   3  -3   2  189.28    5.80
   3  -3   3  178.92    7.34
   3  -3   4  353.94   10.92
   3  -3   5  175.30    9.46
   3  -3   6   88.16    8.20
   3  -3   7   74.01    8.34
   3  -3   8   86.18   16.57
   3  -3   9   65.45   11.02
   3  -3  10   42.93   10.06
   3  -3  11   26.67   14.70
   3  -3  12   22.96   15.43
   3  -2 -13   15.86   15.42
   3  -2 -12   15.64   10.77
   3  -2 -11   47.42    8.69
   3  -2 -10   36.32    8.15
   3  -2  -9   33.67   10.65
   3  -2  -8   36.22    6.36
   3  -2  -7  245.45    9.96
   3  -2  -6   29.88    4.60
   3  -2  -5   45.32    4.30
   3  -2  -4   38.06    4.75
   3  -2  -3   86.26    4.57
   3  -2  -2  511.40   37.62
   3  -2  -1  119.61    6.19
   3  -2   0   89.97    5.29
   3  -2   1   60.02    9.62
   3  -2   2   89.78    4.32
   3  -2   3   91.15    3.03
   3  -2   4  224.37    9.50
   3  -2   5   80.94    6.67
   3  -2   6   51.40    7.13
   3  -2   7   46.89    9.60
   3  -2   8   63.27    8.47
   3  -2   9   37.89    9.19
   3  -2  10   13.51    8.89
   3  -2  11    9.96   13.34
   3  -2  12   15.73   15.05
   3  -1 -13   34.13   13.78
   3  -1 -10   74.61    7.13
   3  -1  -9   92.20   13.49
   3  -1  -8   66.88   14.32
   3  -1  -7  321.13  173.38
   3  -1  -6   17.96    5.24
   3  -1  -5   34.84    5.73
   3  -1  -4   37.61    4.15
   3  -1  -3  181.43    6.78
   3  -1  -2  594.54   55.44
   3  -1  -1  302.91    7.00
   3  -1   0  230.60    8.35
   3  -1   1  100.31    7.89
   3  -1   2  140.48    9.60
   3  -1   3  122.34   10.55
   3  -1   4  155.21    6.57
   3  -1   5   63.35    5.85
   3  -1   6   47.70    7.55
   3  -1   7   80.88   14.90
   3  -1   8   85.45   12.50
   3  -1   9   73.30    8.68
   3  -1  10   37.22   12.52
   3  -1  11   22.28    7.51
   3  -1  12    9.90   16.87
   3   1 -11   59.73   13.82
   3   1  -9  151.45   15.17
   3   1  -8   93.37    6.03
   3   1  -7  420.29   59.03
   3   1  -6   15.30    2.27
   3   1  -5   44.22    9.62
   3   1  -4   49.41    4.73
   3   1  -3  223.59   16.99
   3   1  -2  832.05   59.93
   3   1  -1  444.63    6.20
   3   1   0  294.02   10.93
   3   1   1  165.49   11.86
   3   1   2  151.55    7.08
   3   1   3  137.53   11.14
   3   1   4  179.25   14.45
   3   1   5  111.94    5.53
   3   1   6   83.12   11.00
   3   1   7  106.65   10.92
   3   1   8   84.15   11.05
   3   1   9   88.41   20.88
   3   1  10   38.30    7.82
   3   1  11   25.15    8.82
   3   1  12    2.34   13.69
   3   2 -12   40.95   15.97
   3   2 -11    9.70   13.25
   3   2 -10   16.79   12.59
   3   2  -9   21.24   11.75
   3   2  -8   43.63   11.34
   3   2  -7  297.84   19.08
   3   2  -6   16.73    9.92
   3   2  -5   26.45    6.21
   3   2  -4   31.33    4.06
   3   2  -3  108.61    4.48
   3   2  -2  398.72   17.88
   3   2  -1  110.22    4.12
   3   2   0   97.63    3.52
   3   2   1   76.51    8.47
   3   2   2   83.75    4.24
   3   2   3  107.02    6.44
   3   2   4  168.14   21.15
   3   2   5  110.63    8.91
   3   2   6   53.06    9.23
   3   2   7   60.49   11.40
   3   2   8   49.81   10.53
   3   2   9   52.66   12.66
   3   2  10   22.23   11.50
   3   2  11   33.89   13.30
   3   3 -12   74.42   16.02
   3   3 -11   30.14    9.93
   3   3 -10   30.40    9.15
   3   3  -9   57.35    8.81
   3   3  -8   57.94    9.74
   3   3  -7  367.62   13.57
   3   3  -6   47.02    9.91
   3   3  -5   90.65    5.99
   3   3  -4  107.49    5.39
   3   3  -3  214.80   13.77
   3   3  -2  478.32   13.17
   3   3  -1  268.49   16.42
   3   3   0  242.20   10.20
   3   3   1  161.01    8.14
   3   3   2  165.09    5.59
   3   3   3  178.16    8.22
   3   3   4  211.21    6.99
   3   3   5  164.52    7.60
   3   3   6  103.41   10.57
   3   3   7  122.66   11.37
   3   3   8   68.24   11.57
   3   3   9   48.27   11.47
   3   3  10   30.72   12.68
   3   3  11   49.79   13.65
   3   4 -11   24.85   10.44
   3   4 -10   47.89   10.24
   3   4  -9   52.79   10.14
   3   4  -8   54.10   15.91
   3   4  -7  205.67   12.67
   3   4  -6   13.40    7.35
   3   4  -5   16.39    7.45
   3   4  -4   28.96    7.14
   3   4  -3   87.00    8.66
   3   4  -2  316.48   15.09
   3   4  -1  176.87    9.69
   3   4   0  131.18    8.71
   3   4   1  105.83    8.66
   3   4   2   80.57    7.23
   3   4   3   67.89    4.89
   3   4   4   72.48    5.13
   3   4   5   63.55    6.80
   3   4   6   66.55    8.90
   3   4   7   63.83   10.89
   3   4   8   60.06   11.10
   3   4   9   50.73   12.11
   3   4  10   22.77   11.96
   3   4  11   24.73   13.52
   3   5 -10    0.88   10.37
   3   5  -9   17.35    9.14
   3   5  -8    4.68    8.99
   3   5  -7  100.32   10.41
   3   5  -6   11.69    8.29
   3   5  -5   26.53    7.64
   3   5  -4   29.08    7.99
   3   5  -3   23.48    7.21
   3   5  -2   47.59    8.08
   3   5  -1   44.01    7.99
   3   5   0   56.70    7.87
   3   5   1   18.02   10.03
   3   5   2   35.32    7.26
   3   5   3   51.12   15.15
   3   5   4   78.90    8.47
   3   5   5   44.24   11.42
   3   6  -9   38.31   10.46
   3   6  -8   40.68   10.56
   3   6  -7  120.70   12.33
   3   6  -6   22.60    8.92
   3   6  -5   27.53    8.99
   3   6  -4   45.27    8.92
   3   6  -3   67.92    9.93
   3   6  -2  134.43   10.68
   3   6  -1  117.48    9.99
   3   6   0   79.55    8.85
   3   6   1   66.44   15.85
   3   6   2   46.50    7.84
   3   6   3   57.54   14.05
   3   6   4   44.83    8.43
   3   6   5   35.19   12.98
   3   7  -7   62.52   15.63
   3   7  -6   10.70    9.93
   3   7  -5   13.17    9.55
   3   7  -4   16.90    9.45
   3   7  -3   21.33    8.45
   3   7  -2   49.18    9.29
   3   7  -1   42.82   10.43
   3   7   0   36.02    8.48
   3   7   1   21.87    7.61
   3   7   2   38.51    8.86
   3   7   3   35.73    8.63
   3   7   4   22.03   14.01
   3   7   5   41.12   14.87
   3   8  -6    1.13   14.00
   3   8  -5    2.85   12.77
   3   8  -4    1.46   12.66
   3   8  -3    8.30   12.07
   3   8   0    0.79   15.43
   4  -7  -6   15.31   14.26
   4  -7  -5   13.08   14.37
   4  -7  -4   26.97   14.23
   4  -7  -3   27.83   14.45
   4  -7  -2   40.74   15.44
   4  -7  -1   27.46   14.51
   4  -7   0    8.63   14.57
   4  -7   1    1.43   14.96
   4  -7   2   27.21   15.60
   4  -7   3   37.74   15.87
   4  -7   4   25.17   16.78
   4  -6  -9   31.97   15.19
   4  -6  -8   25.12   13.73
   4  -6  -7   95.23   21.91
   4  -6  -6   20.20    9.23
   4  -6  -5   12.39    8.90
   4  -6  -4   11.86   13.44
   4  -6  -3   29.40   12.92
   4  -6  -2   86.96   14.99
   4  -6  -1   80.86   15.25
   4  -6   0   60.21   14.89
   4  -6   1   54.40   14.78
   4  -6   2   62.36   14.09
   4  -6   3   50.30   15.28
   4  -6   4   28.36   15.03
   4  -6   5   34.18   15.42
   4  -6   6    4.02   15.65
   4  -5 -11    0.48   13.12
   4  -5 -10    0.18   12.99
   4  -5  -9    2.27    9.50
   4  -5  -8   14.01    9.19
   4  -5  -7   79.46   10.05
   4  -5  -6   47.17    9.16
   4  -5  -5   36.65    8.74
   4  -5  -4   31.19   12.52
   4  -5  -3   34.40   11.22
   4  -5  -2   20.13   11.27
   4  -5  -1   32.68   11.33
   4  -5   0   16.07   11.10
   4  -5   1   17.08   11.28
   4  -5   2   75.64   14.19
   4  -5   3   90.95   14.16
   4  -5   4   63.73   14.58
   4  -5   5   27.02   13.56
   4  -5   6   12.54   14.66
   4  -5   7   44.12   15.13
   4  -5   8   40.13   16.35
   4  -4 -10   20.52    9.52
   4  -4  -9   28.31    8.99
   4  -4  -8   24.70    8.10
   4  -4  -7  123.96   10.87
   4  -4  -6   22.30    7.49
   4  -4  -5    3.50    6.91
   4  -4  -4    1.25   10.16
   4  -4  -3   26.15   10.90
   4  -4  -2  116.56   12.48
   4  -4  -1   86.25   12.14
   4  -4   0   51.21   11.10
   4  -4   1   58.66   11.90
   4  -4   2   49.67   11.56
   4  -4   3   32.59   11.92
   4  -4   4   15.02   11.51
   4  -4   5    5.19   12.56
   4  -4   6   16.25    8.95
   4  -4   7   61.21   15.18
   4  -4   8   63.42   16.85
   4  -4   9   72.07   16.64
   4  -3 -11    8.34   14.84
   4  -3 -10    4.45    8.32
   4  -3  -9   39.29    8.27
   4  -3  -8   59.90   13.42
   4  -3  -7  229.49    8.08
   4  -3  -6  126.94    6.72
   4  -3  -5   86.63    8.47
   4  -3  -4   98.24    9.58
   4  -3  -3  127.40   11.58
   4  -3  -2  142.48    9.62
   4  -3  -1  146.19    7.08
   4  -3   0  120.53   12.27
   4  -3   1   96.74   11.20
   4  -3   2  212.79    7.77
   4  -3   3  192.91   15.05
   4  -3   4  117.30   10.59
   4  -3   5   82.06    7.43
   4  -3   6   34.88    9.44
   4  -3   7  102.89    9.58
   4  -3   8   62.51    9.34
   4  -3   9   77.07   10.97
   4  -2 -11    0.30   12.12
   4  -2 -10    0.40    8.01
   4  -2  -9   21.76    7.84
   4  -2  -8   35.50    5.49
   4  -2  -7  174.33    8.07
   4  -2  -6   77.36    5.88
   4  -2  -5   45.09    4.95
   4  -2  -4   36.82    5.66
   4  -2  -3   50.43    6.10
   4  -2  -2   65.21    5.75
   4  -2  -1   74.46    6.23
   4  -2   0   80.47    6.11
   4  -2   1   37.15    9.07
   4  -2   2  139.44    5.47
   4  -2   3  105.38   12.36
   4  -2   4   98.07   12.35
   4  -2   5   50.13   11.43
   4  -2   6    3.01    6.47
   4  -2   7   84.60    8.86
   4  -2   8   42.35    8.54
   4  -2   9   56.23   14.93
   4  -2  10   21.25    9.68
   4  -2  11   40.54   15.53
   4  -1 -12   38.65   14.19
   4  -1 -11    2.95   12.69
   4  -1 -10   14.99    9.96
   4  -1  -9   81.22   13.60
   4  -1  -8   60.67   20.95
   4  -1  -7  193.41   31.77
   4  -1  -6   37.33    4.38
   4  -1  -5   11.77    4.16
   4  -1  -4    3.95    4.55
   4  -1  -3   38.16    5.97
   4  -1  -2   83.42    5.71
   4  -1  -1   83.97    7.99
   4  -1   0   76.39    6.05
   4  -1   1   25.21    5.24
   4  -1   2   78.90   16.67
   4  -1   3   36.87    7.83
   4  -1   4   22.22    6.56
   4  -1   5   13.28    8.68
   4  -1   6    1.39    9.60
   4  -1   7   80.78   11.77
   4  -1   8   73.72   16.36
   4  -1   9   67.72    8.18
   4  -1  10   16.64    8.49
   4  -1  11   31.27   13.41
   4   1 -11   21.84   18.28
   4   1 -10   11.62   15.62
   4   1  -9   21.76    6.85
   4   1  -8   36.89    9.99
   4   1  -7  105.10   10.06
   4   1  -6   64.35   10.24
   4   1  -5    9.70    4.69
   4   1  -4    1.51    4.57
   4   1  -3   36.99    5.16
   4   1  -2   90.53    5.45
   4   1  -1  144.51   10.89
   4   1   0  114.75    8.92
   4   1   1    3.98    2.39
   4   1   2  150.61    5.22
   4   1   3   46.43    4.02
   4   1   4   39.11    4.19
   4   1   5   16.73    9.29
   4   1   6    9.21    9.35
   4   1   7  134.90   13.77
   4   1   8   98.18   12.06
   4   1   9   63.69   13.39
   4   1  10   24.59   11.67
   4   1  11   11.64   10.99
   4   2 -11    5.51   13.29
   4   2 -10    4.96   12.53
   4   2  -9   16.75   12.94
   4   2  -8   56.83   12.38
   4   2  -7  124.62   15.25
   4   2  -6   95.47    9.33
   4   2  -5   52.68    7.81
   4   2  -4   29.77    3.92
   4   2  -3   31.27    2.85
   4   2  -2   36.35    2.16
   4   2  -1   49.17    3.55
   4   2   0   65.89    3.88
   4   2   1    2.56    3.54
   4   2   2  166.01    7.12
   4   2   3   89.20    5.27
   4   2   4   77.41    5.34
   4   2   5   20.41    4.85
   4   2   6    2.34    8.16
   4   2   7   65.92   11.06
   4   2   8   44.13   12.01
   4   2   9   41.02   12.07
   4   2  10   17.54   12.07
   4   2  11   13.83   12.80
   4   3 -11   23.00   13.79
   4   3 -10   12.79    9.69
   4   3  -9   32.75    9.05
   4   3  -8   58.20    9.85
   4   3  -7  115.83   10.67
   4   3  -6  155.31   10.99
   4   3  -5   99.39    9.75
   4   3  -4   85.15    9.14
   4   3  -3   81.43    8.55
   4   3  -2  107.59    8.63
   4   3  -1  109.08    8.52
   4   3   0  101.43    8.29
   4   3   1   11.02    2.31
   4   3   2  249.10   15.69
   4   3   3  157.24    6.32
   4   3   4  147.24    6.41
   4   3   5   49.26    6.10
   4   3   6   22.52    7.67
   4   3   7  122.66   13.18
   4   3   8   73.42   11.35
   4   3   9   82.54   13.64
   4   3  10   28.57   13.15
   4   3  11   26.04   13.98
   4   4 -10   17.42   10.01
   4   4  -9   28.21   10.79
   4   4  -8   48.46   20.20
   4   4  -7   68.11   10.28
   4   4  -6   26.53    8.50
   4   4  -5    6.57    7.57
   4   4  -4    0.00    7.16
   4   4  -3   14.05    6.97
   4   4  -2   51.30    8.09
   4   4  -1   68.06    8.46
   4   4   0   42.46    7.91
   4   4   1    5.15    6.82
   4   4   2   84.95    8.64
   4   4   3   18.72    6.87
   4   4   4   11.17    9.64
   4   4   5    0.46    8.37
   4   4   6    1.09    8.79
   4   5  -9    5.80   13.48
   4   5  -8   14.44    9.71
   4   5  -7   31.00    9.27
   4   5  -6   72.75   17.74
   4   5  -5   47.65    9.35
   4   5  -4   23.55    8.80
   4   5  -3   30.27    8.80
   4   5  -2   26.38    8.58
   4   5  -1   14.82    7.71
   4   5   0   15.18    7.51
   4   5   1    1.76    7.10
   4   5   2  107.46   16.59
   4   5   3   69.18    9.25
   4   5   4   57.10    9.01
   4   5   5   18.78   11.07
   4   5   6    9.38   11.11
   4   6  -7   32.06   10.91
   4   6  -6   30.29   10.02
   4   6  -5    5.60    8.89
   4   6  -4    7.13    9.03
   4   6  -3   42.40    9.92
   4   6  -2   51.51   10.09
   4   6  -1   62.16    9.87
   4   6   0   38.47    8.97
   4   6   1    2.90    7.80
   4   6   2   81.48   10.02
   4   6   3   24.49    8.16
   4   6   4   18.60    9.14
   4   6   5    2.21   12.79
   4   6   6   11.55   13.13
   4   7  -5    6.08   14.12
   4   7  -4    1.16   13.43
   4   7  -3   17.52    9.85
   4   7  -2   18.60    8.84
   4   7  -1   16.05    9.11
   4   7   0   13.96    8.65
   4   7   1    0.90    8.61
   4   7   2   61.55   10.15
   4   7   3   27.66    9.16
   4   7   4   22.14    9.04
   4   7   5    5.47   13.61
   4   8  -3   11.94   13.42
   4   8  -2   13.02   13.95
   4   8  -1    6.65   12.52
   5  -6  -6   39.51   16.15
   5  -6  -5   23.20   14.09
   5  -6  -4   10.05   13.47
   5  -6  -3   27.36   13.81
   5  -6  -2   20.69   14.02
   5  -6  -1   22.41   14.94
   5  -6   0   17.58   14.45
   5  -6   1    0.20   13.47
   5  -6   2   48.79   15.79
   5  -6   3   22.81   14.82
   5  -6   4   15.44   15.59
   5  -5  -9    9.27   12.76
   5  -5  -8   28.72    9.84
   5  -5  -7   22.73   15.15
   5  -5  -6   66.59   15.07
   5  -5  -5   46.68   14.28
   5  -5  -4   29.79   13.60
   5  -5  -3   47.76   12.67
   5  -5  -2   32.95   12.77
   5  -5  -1    1.23   12.11
   5  -5   0    4.68   12.36
   5  -5   1    2.70   11.95
   5  -5   2  107.80   16.22
   5  -5   3   48.68   14.72
   5  -5   4   31.05   14.51
   5  -5   5    9.00   14.35
   5  -5   6    1.08   14.91
   5  -4  -9   23.04   14.24
   5  -4  -8   35.42    9.42
   5  -4  -7   24.62   13.01
   5  -4  -6   47.94   13.75
   5  -4  -5    7.93   11.80
   5  -4  -4    5.57   10.57
   5  -4  -3   29.45   11.29
   5  -4  -2   39.94   11.92
   5  -4  -1   35.28   11.79
   5  -4   0   43.75   12.19
   5  -4   1    0.37   10.90
   5  -4   2  111.35   15.38
   5  -4   3   16.91   12.95
   5  -4   4    3.34   12.54
   5  -4   5    1.23   13.61
   5  -4   6    2.21    9.69
   5  -4   7   46.46   15.95
   5  -3 -10   57.60   16.02
   5  -3  -9   44.70   14.03
   5  -3  -8   62.17   14.34
   5  -3  -7   51.11   12.94
   5  -3  -6  182.03   15.59
   5  -3  -5  110.99    9.00
   5  -3  -4   56.61    6.72
   5  -3  -3  110.59    8.00
   5  -3  -2  104.52    7.11
   5  -3  -1   55.81    6.99
   5  -3   0   70.98   11.50
   5  -3   1    4.03    9.72
   5  -3   2  280.46   16.99
   5  -3   3  122.67   15.68
   5  -3   4   71.64   13.98
   5  -3   5   36.72   13.67
   5  -3   6    8.23   11.74
   5  -3   7   46.21   14.88
   5  -3   8   36.57   15.57
   5  -2 -11   42.87   15.26
   5  -2 -10   28.61   13.69
   5  -2  -9   30.27    8.74
   5  -2  -8   46.40   12.21
   5  -2  -7   30.78    7.51
   5  -2  -6  112.03    9.23
   5  -2  -5   56.28    7.06
   5  -2  -4   18.32    6.48
   5  -2  -3   55.40    6.57
   5  -2  -2   66.64    8.45
   5  -2  -1   27.22    5.98
   5  -2   0   19.58    6.24
   5  -2   1    2.46    6.26
   5  -2   2  215.03   16.41
   5  -2   3   64.05   11.59
   5  -2   4   20.57   11.67
   5  -2   5   12.64   10.91
   5  -2   6    2.63    9.99
   5  -2   7   32.06   14.04
   5  -2   8   25.25   14.01
   5  -2   9    6.45   14.05
   5  -1 -12   21.01   12.76
   5  -1 -11   63.71   15.01
   5  -1 -10   59.91   18.95
   5  -1  -9   32.81    5.89
   5  -1  -8   40.27    7.58
   5  -1  -7   31.18    8.66
   5  -1  -6   70.79    7.39
   5  -1  -5   25.44   13.38
   5  -1  -4    8.99    7.30
   5  -1  -3   55.86    9.85
   5  -1  -2   69.02    6.06
   5  -1  -1   33.14    5.03
   5  -1   0   28.67    5.70
   5  -1   1   20.10    3.35
   5  -1   2   90.16   34.35
   5  -1   3   25.05    8.28
   5  -1   4    8.93    9.11
   5  -1   5   15.11   10.98
   5  -1   6   21.26    9.81
   5  -1   7   28.78    9.40
   5  -1   8   30.95   10.50
   5  -1   9   20.50    8.75
   5   1 -11   88.49   19.54
   5   1 -10   54.31   15.44
   5   1  -9   38.85   13.40
   5   1  -8   11.39   10.44
   5   1  -7   32.49    6.58
   5   1  -6   63.75   14.50
   5   1  -5   26.65    5.35
   5   1  -4    3.73    3.69
   5   1  -3   96.27   10.11
   5   1  -2  104.80    5.41
   5   1  -1   44.32   10.91
   5   1   0   42.73    7.95
   5   1   1   14.96    3.40
   5   1   2  236.95   17.04
   5   1   3   38.04    6.29
   5   1   4    1.97    8.07
   5   1   5   12.46    6.43
   5   1   6   29.66   11.04
   5   1   7   41.94   10.72
   5   1   8   51.25   12.53
   5   1   9   34.02   13.17
   5   1  10   11.82   13.81
   5   2 -10   26.92   10.47
   5   2  -9   32.14    9.61
   5   2  -8   23.47    9.08
   5   2  -7   54.59    9.45
   5   2  -6   77.67   10.09
   5   2  -5   53.55    8.02
   5   2  -4   15.36    8.18
   5   2  -3  118.65    9.21
   5   2  -2   80.38    8.86
   5   2  -1   16.83    6.70
   5   2   0   12.93    4.16
   5   2   1    5.61    3.91
   5   2   2  230.57   15.88
   5   2   3   62.14    5.09
   5   2   4   22.03    6.54
   5   2   5   11.39    7.96
   5   2   6    4.41    9.08
   5   2   7   17.88   11.21
   5   2   8   12.03   10.87
   5   2   9   15.44   11.70
   5   2  10    4.42   13.51
   5   3  -9   45.88   10.74
   5   3  -8   33.25    9.97
   5   3  -7   89.72   10.98
   5   3  -6  117.15   10.95
   5   3  -5   99.68   11.13
   5   3  -4   47.57    8.30
   5   3  -3  163.66   11.54
   5   3  -2  118.78    9.58
   5   3  -1   37.74    7.66
   5   3   0   37.57    7.54
   5   3   1   20.14    7.75
   5   3   2  295.40   12.29
   5   3   3  124.23   21.83
   5   3   4   55.60   12.89
   5   4  -8   15.81   10.10
   5   4  -7   37.38   10.37
   5   4  -6   21.59    9.56
   5   4  -5    3.28    8.55
   5   4  -4    2.53    8.38
   5   4  -3   72.18   12.55
   5   4  -2   59.62    9.66
   5   4  -1   35.77    8.58
   5   4   0   33.97    8.30
   5   4   1   25.10    8.44
   5   4   2  104.68    9.78
   5   4   3   18.30    8.32
   5   4   4   10.02    7.35
   5   5  -7   41.35   16.05
   5   5  -6   45.92   10.13
   5   5  -5   39.04   16.84
   5   5  -4   10.93    8.81
   5   5  -3   73.11   11.11
   5   5  -2   26.73    8.83
   5   5  -1    4.85    8.75
   5   5   0    1.34    8.72
   5   5   1    8.14    8.22
   5   5   2   75.03    9.89
   5   5   3   48.91   11.46
   5   5   4   25.70    8.94
   5   6  -5   23.72   14.49
   5   6  -4   12.41   10.19
   5   6  -3   64.13   11.28
   5   6  -2   47.26   13.58
   5   6  -1   33.79   10.20
   5   6   0   20.99   12.63
   5   6   1   18.16    9.40
   5   6   2   51.41   10.28
   5   6   3   38.82   13.78
   5   6   4   14.14    9.75
   5   7  -1   18.49   14.21
   5   7   0   12.46   13.33
   5   7   1   12.40   13.89
   6  -5  -5   27.05   14.68
   6  -5  -4    9.29   14.38
   6  -5  -3   41.88   15.49
   6  -5  -2   23.00   14.91
   6  -5  -1   14.77   14.31
   6  -5   0    7.94   14.25
   6  -5   1    3.65   14.26
   6  -5   2   50.08   17.34
   6  -5   3   39.82   16.67
   6  -4  -7   30.97   14.96
   6  -4  -6   30.66   13.42
   6  -4  -5   28.91   13.61
   6  -4  -4   26.20   13.25
   6  -4  -3   79.61   15.15
   6  -4  -2   41.17   13.40
   6  -4  -1   55.49   14.62
   6  -4   0   25.27   12.99
   6  -4   1   32.32   14.05
   6  -4   2   91.20   15.71
   6  -4   3   45.57   15.15
   6  -4   4   21.86   15.65
   6  -4   5   20.74   16.00
   6  -3  -9   32.26   14.94
   6  -3  -8    9.02   12.66
   6  -3  -7   63.50   14.60
   6  -3  -6   46.36   13.39
   6  -3  -5   61.97   13.46
   6  -3  -4   67.83   13.31
   6  -3  -3  137.80   15.10
   6  -3  -2   63.54   13.28
   6  -3  -1   54.41    8.10
   6  -3   0   44.38   12.75
   6  -3   1   59.98   13.17
   6  -3   2  117.28   15.55
   6  -3   3   76.66   15.41
   6  -3   4   47.65   14.22
   6  -3   5   55.59   15.31
   6  -3   6   40.09   15.50
   6  -2 -10   22.13   13.76
   6  -2  -9   27.46   13.40
   6  -2  -8    1.49   11.29
   6  -2  -7   27.87   12.49
   6  -2  -6   16.98    7.74
   6  -2  -5   21.48    7.14
   6  -2  -4   31.94    7.34
   6  -2  -3   82.97    8.89
   6  -2  -2   39.88    7.08
   6  -2  -1   24.16    6.89
   6  -2   0   17.79    6.91
   6  -2   1   31.06   11.02
   6  -2   2   77.18   12.97
   6  -2   3   45.03   12.41
   6  -2   4   27.96   11.98
   6  -2   5   14.61   12.57
   6  -2   6   21.12   12.25
   6  -2   7   27.39   14.10
   6  -1 -10   24.25    6.32
   6  -1  -9   34.50   28.37
   6  -1  -8   18.04    7.34
   6  -1  -7   50.89    7.00
   6  -1  -6   20.01    5.76
   6  -1  -5   33.06    5.99
   6  -1  -4   40.40    6.40
   6  -1  -3   91.79    6.86
   6  -1  -2   72.75    8.99
   6  -1  -1   66.70    6.69
   6  -1   0   66.08   12.59
   6  -1   1   57.61   12.61
   6  -1   2   73.01    7.59
   6  -1   3   52.51    8.83
   6  -1   4   41.21   10.49
   6  -1   5   31.14   10.48
   6  -1   6   56.76   12.40
   6  -1   7   24.12    8.52
   6  -1   8   28.41   12.83
   6   1  -9   46.97   15.68
   6   1  -8   32.61   13.59
   6   1  -7   32.83   11.53
   6   1  -6   32.20   11.92
   6   1  -5   46.79    8.88
   6   1  -4   53.35    9.32
   6   1  -3  115.55   14.59
   6   1  -2   91.83    8.94
   6   1  -1  111.07    9.04
   6   1   0  116.16    8.74
   6   1   1   87.64   23.36
   6   1   2   70.12   12.30
   6   1   3   48.12    9.97
   6   1   4   60.03   10.87
   6   2  -8   11.32   10.10
   6   2  -7   21.62    9.84
   6   2  -6   15.48    9.15
   6   2  -5   23.94    9.11
   6   2  -4   24.88    8.52
   6   2  -3   68.04    9.89
   6   2  -2   36.59   10.71
   6   2  -1   35.01    8.06
   6   2   0   29.10    7.21
   6   2   1   27.51    7.72
   6   2   2   35.24   12.96
   6   2   3   47.81   14.68
   6   3  -7   33.84   11.14
   6   3  -6   33.57   10.11
   6   3  -5   46.03   10.27
   6   3  -4   49.67   10.04
   6   3  -3   73.49    9.92
   6   3  -2   61.82    9.74
   6   3  -1   54.54    8.97
   6   3   0   53.23    9.01
   6   3   1   43.06    8.84
   6   3   2   49.01   13.07
   6   3   3   57.64   14.24
   6   3   4   81.70   15.25
   6   4  -6   15.89    9.93
   6   4  -5   20.34    9.48
   6   4  -4   39.65   10.30
   6   4  -3   42.95   11.48
   6   4  -2   56.96   10.15
   6   4  -1   55.78   10.34
   6   4   0   55.02    9.85
   6   4   1   35.05    9.57
   6   4   2   32.23   15.26
   6   4   3   27.37   14.80
   6   4   4   57.75   16.87
   6   5  -4   10.32   13.07
   6   5  -3   20.47    9.86
   6   5  -2   12.55    9.60
   6   5  -1    6.71   10.10
   6   5   0    4.96    9.73
   6   5   1    0.71    9.86
   6   5   2    2.92   11.46
   6   6   1   38.95   15.25
   6   6   2   26.72   13.91
   7  -4  -5   13.36   14.04
   7  -4  -4   24.45   14.20
   7  -4  -3    8.56   14.19
   7  -4  -2   29.86   15.46
   7  -4  -1   19.83   14.48
   7  -4   0   34.50   14.66
   7  -4   1   26.82   15.49
   7  -4   2   14.65   15.81
   7  -3  -7   15.38   14.23
   7  -3  -6   11.11   13.55
   7  -3  -5    4.66   12.18
   7  -3  -4   24.20   13.12
   7  -3  -3    4.25   12.20
   7  -3  -2   37.15   13.61
   7  -3  -1   28.64   13.31
   7  -3   0   55.44   14.53
   7  -3   1   22.96   13.17
   7  -3   2   19.06   13.91
   7  -3   3   30.70   15.65
   7  -3   4   59.12   17.00
   7  -2  -6    7.51   11.31
   7  -2  -5    0.15   12.43
   7  -2  -4   14.56   11.07
   7  -2  -3    0.75    7.57
   7  -2  -2   23.79    7.77
   7  -2  -1   14.05    7.92
   7  -2   0   40.53    8.93
   7  -2   1    0.52   11.65
   7  -2   2    5.46   11.98
   7  -2   3    5.21   12.28
   7  -2   4   29.52   14.04
   7  -2   5    2.01   13.76
   7  -1  -7   10.12    7.02
   7  -1  -6    9.07    9.18
   7  -1  -5   28.48   11.07
   7  -1  -4   27.73    9.88
   7  -1  -3   10.80    8.44
   7  -1  -2   30.22   10.71
   7  -1  -1   16.78   10.80
   7  -1   0   50.68   11.47
   7  -1   1    4.33    8.15
   7  -1   4   27.26    9.92
   7  -1   5    1.39    5.54
   7  -1   6   18.68   11.78
   7   1  -7   30.85   15.84
   7   1  -6   23.13   10.27
   7   1  -5   39.13    9.58
   7   1  -4   22.46    8.66
   7   1  -3   17.88    8.87
   7   1  -2   19.70    7.22
   7   1  -1   24.92   11.91
   7   1   0   54.64   12.18
   7   1   1   19.10   15.45
   7   1   2   29.30   13.72
   7   1   3   22.41   13.46
   7   2  -6    1.45   14.50
   7   2  -5    4.85    9.78
   7   2  -4    7.81    9.88
   7   2  -3    7.35    9.29
   7   2  -2   17.16    9.61
   7   2  -1   11.68   12.73
   7   2   0   22.11   13.68
   7   2   1   14.39   13.45
   7   2   2    1.55   13.82
   7   3  -5   20.02   14.08
   7   3  -4    5.35   14.24
   7   3  -3   10.56    9.55
   7   3  -2   43.42    9.91
   7   3  -1   17.56   14.65
   7   3   0   51.95   16.35
   7   4  -3    6.31   13.18
   7   4  -2   17.11   13.29
   7   4  -1   11.43   13.90
   8  -1  -4    7.99   10.29
   8  -1  -3    1.75   13.38
   8  -1  -2    3.53   10.42
   8  -1  -1    3.17    8.66
   8  -1   0   18.49   10.72
   0   0   0    0.00    0.00
;
_shelx_hkl_checksum              73136
_olex2_submission_special_instructions 'No special instructions were received'
loop_
_space_group_symop_operation_xyz
'x, y, z'
loop_
_atom_site_label
_atom_site_type_symbol
_atom_site_fract_x
_atom_site_fract_y
_atom_site_fract_z
_atom_site_U_iso_or_equiv
_atom_site_adp_type
_atom_site_occupancy
_atom_site_site_symmetry_order
_atom_site_calc_flag
_atom_site_refinement_flags_posn
_atom_site_refinement_flags_adp
Co1 Co 0.00006(15) 0.00002(14) 0.00005(13) 0.0150(3) Uani 1 1 d . .
N1 N -0.0094(18) 0.3181(13) -0.0058(11) 0.013(2) Uani 1 1 d . U
N2 N -0.003(2) 0.6861(13) -0.0049(11) 0.018(2) Uani 1 1 d . .
O1 O 0.0699(12) -0.0007(10) 0.1954(8) 0.0173(18) Uani 1 1 d . .
O4 O -0.1335(13) 0.0001(11) 0.8184(9) 0.024(2) Uani 1 1 d . .
O2 O -0.2765(12) -0.0146(9) 0.1305(6) 0.0275(16) Uani 1 1 d . .
C6 C 0.001(2) 0.0176(16) 0.4443(12) 0.032(3) Uani 1 1 d . U
H6 H 0.1437 0.0399 0.4205 0.039 Uiso 1 1 calc R .
C7 C -0.1275(14) -0.0089(11) 0.2191(8) 0.0137(17) Uani 1 1 d . U
C1 C -0.1766(14) -0.0084(12) 0.3554(9) 0.0182(18) Uani 1 1 d . U
C3 C -0.4287(17) -0.0408(13) 0.5159(10) 0.032(2) Uani 1 1 d . U
H3 H -0.5715 -0.0624 0.5393 0.038 Uiso 1 1 calc R .
C2 C -0.3920(17) -0.0334(13) 0.3884(10) 0.028(2) Uani 1 1 d . U
H2 H -0.5101 -0.0451 0.3266 0.034 Uiso 1 1 calc R .
C5 C -0.038(2) 0.0099(18) 0.5687(15) 0.044(4) Uani 1 1 d . U
H5 H 0.0819 0.0223 0.6296 0.053 Uiso 1 1 calc R .
O1W O 0.3340(11) 0.0181(9) -0.0222(7) 0.0253(15) Uani 1 1 d . .
H1WA H 0.4090 0.0129 0.0496 0.038 Uiso 1 1 d DGR .
H1WB H 0.3512 -0.0287 -0.0894 0.038 Uiso 1 1 d DGR .
C4 C -0.2525(16) -0.0160(12) 0.6074(10) 0.025(2) Uani 1 1 d . U
O3 O -0.4886(18) -0.0515(14) 0.7645(10) 0.076(3) Uani 1 1 d . U
C8 C -0.2918(17) -0.0191(12) 0.7436(9) 0.025(2) Uani 1 1 d . U
C12 C -0.2279(17) 0.5993(12) -0.0050(10) 0.027(2) Uani 1 1 d . U
H12A H -0.3186 0.6439 -0.0779 0.033 Uiso 1 1 calc R .
H12B H -0.2931 0.6385 0.0697 0.033 Uiso 1 1 calc R .
C10 C 0.0915(18) 0.6104(13) -0.1227(10) 0.029(2) Uani 1 1 d . U
H10A H -0.0010 0.6470 -0.1971 0.034 Uiso 1 1 calc R .
H10B H 0.2388 0.6666 -0.1287 0.034 Uiso 1 1 calc R .
C14 C 0.1328(17) 0.6112(12) 0.1080(9) 0.026(2) Uani 1 1 d . U
H14A H 0.0737 0.6532 0.1840 0.032 Uiso 1 1 calc R .
H14B H 0.2838 0.6623 0.1084 0.032 Uiso 1 1 calc R .
C11 C -0.2282(17) 0.3860(12) -0.0080(10) 0.028(2) Uani 1 1 d . U
H11A H -0.2981 0.3352 0.0640 0.033 Uiso 1 1 calc R .
H11B H -0.3150 0.3409 -0.0836 0.033 Uiso 1 1 calc R .
C13 C 0.1333(18) 0.3983(12) 0.1083(9) 0.027(2) Uani 1 1 d . U
H13A H 0.0766 0.3495 0.1848 0.032 Uiso 1 1 calc R .
H13B H 0.2838 0.3586 0.1066 0.032 Uiso 1 1 calc R .
C9 C 0.1027(17) 0.3988(12) -0.1191(9) 0.024(2) Uani 1 1 d . U
H9A H 0.2562 0.3645 -0.1129 0.029 Uiso 1 1 calc R .
H9B H 0.0293 0.3456 -0.1962 0.029 Uiso 1 1 calc R .
loop_
_atom_site_aniso_label
_atom_site_aniso_U_11
_atom_site_aniso_U_22
_atom_site_aniso_U_33
_atom_site_aniso_U_23
_atom_site_aniso_U_13
_atom_site_aniso_U_12
Co1 0.0144(6) 0.0225(6) 0.0081(5) 0.0003(3) 0.0017(4) 0.0009(4)
N1 0.012(2) 0.014(2) 0.012(2) -0.0002(13) 0.0013(13) 0.0010(13)
N2 0.020(4) 0.021(4) 0.012(4) 0.003(3) -0.003(3) 0.001(3)
O1 0.012(4) 0.024(4) 0.015(4) -0.003(3) 0.000(3) 0.000(3)
O4 0.013(4) 0.029(4) 0.028(5) -0.001(3) 0.000(3) -0.003(3)
O2 0.038(4) 0.036(4) 0.011(4) 0.004(3) 0.008(3) 0.006(3)
C6 0.032(3) 0.033(3) 0.032(3) -0.0003(14) 0.0026(14) 0.0013(14)
C7 0.014(2) 0.013(2) 0.014(2) -0.0004(13) 0.0015(13) -0.0004(13)
C1 0.018(2) 0.019(2) 0.018(2) 0.0003(13) 0.0022(13) 0.0008(13)
C3 0.031(3) 0.032(3) 0.031(3) -0.0005(14) 0.0034(14) 0.0019(14)
C2 0.028(3) 0.029(2) 0.028(2) -0.0008(13) 0.0021(14) 0.0015(14)
C5 0.044(4) 0.045(4) 0.044(4) -0.0002(14) 0.0035(14) 0.0017(14)
O1W 0.021(4) 0.030(4) 0.025(4) -0.003(3) 0.001(3) 0.002(3)
C4 0.025(2) 0.026(2) 0.026(2) -0.0004(13) 0.0027(14) 0.0015(14)
O3 0.073(4) 0.081(4) 0.073(4) 0.000(3) 0.007(3) 0.003(3)
C8 0.024(2) 0.026(2) 0.025(2) -0.0002(13) 0.0030(14) 0.0018(13)
C12 0.027(2) 0.027(2) 0.027(2) 0.0006(13) 0.0030(14) 0.0010(13)
C10 0.029(3) 0.029(3) 0.028(3) -0.0005(13) 0.0034(14) 0.0011(14)
C14 0.027(2) 0.026(2) 0.026(2) 0.0002(13) 0.0013(14) 0.0013(13)
C11 0.028(2) 0.028(2) 0.028(2) -0.0008(13) 0.0028(14) 0.0013(14)
C13 0.027(2) 0.026(2) 0.027(2) 0.0004(13) 0.0007(14) 0.0014(13)
C9 0.025(2) 0.025(2) 0.024(2) 0.0002(13) 0.0030(14) 0.0007(13)
loop_
_atom_type_symbol
_atom_type_description
_atom_type_scat_dispersion_real
_atom_type_scat_dispersion_imag
_atom_type_scat_source
C C 0.0033 0.0016 'International Tables Vol C Tables 4.2.6.8 and 6.1.1.4'
H H 0.0000 0.0000 'International Tables Vol C Tables 4.2.6.8 and 6.1.1.4'
Co Co 0.3494 0.9721 'International Tables Vol C Tables 4.2.6.8 and 6.1.1.4'
N N 0.0061 0.0033 'International Tables Vol C Tables 4.2.6.8 and 6.1.1.4'
O O 0.0106 0.0060 'International Tables Vol C Tables 4.2.6.8 and 6.1.1.4'
loop_
_geom_angle_atom_site_label_1
_geom_angle_atom_site_label_2
_geom_angle_atom_site_label_3
_geom_angle
_geom_angle_site_symmetry_1
_geom_angle_site_symmetry_3
N1 Co1 O2 90.3(3) . .
N2 Co1 N1 176.6(6) 1_545 .
N2 Co1 O2 90.1(3) 1_545 .
O1 Co1 N1 91.9(4) . .
O1 Co1 N2 91.2(4) . 1_545
O1 Co1 O2 58.9(3) . .
O4 Co1 N1 87.5(4) 1_554 .
O4 Co1 N2 89.2(4) 1_554 1_545
O4 Co1 O1 168.3(3) 1_554 .
O4 Co1 O2 109.3(3) 1_554 .
O4 Co1 O1W 101.6(3) 1_554 .
O1W Co1 N1 90.2(3) . .
O1W Co1 N2 91.2(4) . 1_545
O1W Co1 O1 90.1(3) . .
O1W Co1 O2 149.1(3) . .
C11 N1 Co1 113.5(7) . .
C11 N1 C13 109.7(9) . .
C11 N1 C9 109.4(9) . .
C13 N1 Co1 108.6(7) . .
C13 N1 C9 104.2(9) . .
C9 N1 Co1 110.9(6) . .
C12 N2 Co1 112.5(7) . 1_565
C12 N2 C10 105.9(9) . .
C12 N2 C14 107.5(9) . .
C10 N2 Co1 112.9(7) . 1_565
C14 N2 Co1 110.5(7) . 1_565
C14 N2 C10 107.3(9) . .
C7 O1 Co1 95.2(6) . .
C8 O4 Co1 149.5(8) . 1_556
C7 O2 Co1 86.5(5) . .
C1 C6 H6 120.9 . .
C5 C6 H6 120.9 . .
C5 C6 C1 118.2(10) . .
O1 C7 C1 118.2(8) . .
O2 C7 O1 119.3(8) . .
O2 C7 C1 122.5(8) . .
C6 C1 C7 117.0(8) . .
C6 C1 C2 122.0(9) . .
C2 C1 C7 121.0(8) . .
C2 C3 H3 119.9 . .
C4 C3 H3 119.9 . .
C4 C3 C2 120.1(10) . .
C1 C2 C3 119.0(9) . .
C1 C2 H2 120.5 . .
C3 C2 H2 120.5 . .
C6 C5 H5 118.9 . .
C6 C5 C4 122.1(11) . .
C4 C5 H5 118.9 . .
Co1 O1W H1WA 110.1 . .
Co1 O1W H1WB 107.6 . .
H1WA O1W H1WB 131.7 . .
C3 C4 C5 118.4(11) . .
C3 C4 C8 120.3(9) . .
C5 C4 C8 121.3(10) . .
O4 C8 C4 117.3(9) . .
O4 C8 O3 128.0(11) . .
O3 C8 C4 114.5(10) . .
N2 C12 H12A 109.2 . .
N2 C12 H12B 109.2 . .
N2 C12 C11 112.0(8) . .
H12A C12 H12B 107.9 . .
C11 C12 H12A 109.2 . .
C11 C12 H12B 109.2 . .
N2 C10 H10A 109.3 . .
N2 C10 H10B 109.3 . .
H10A C10 H10B 107.9 . .
C9 C10 N2 111.7(8) . .
C9 C10 H10A 109.3 . .
C9 C10 H10B 109.3 . .
N2 C14 H14A 109.2 . .
N2 C14 H14B 109.2 . .
N2 C14 C13 112.0(8) . .
H14A C14 H14B 107.9 . .
C13 C14 H14A 109.2 . .
C13 C14 H14B 109.2 . .
N1 C11 C12 112.2(8) . .
N1 C11 H11A 109.2 . .
N1 C11 H11B 109.2 . .
C12 C11 H11A 109.2 . .
C12 C11 H11B 109.2 . .
H11A C11 H11B 107.9 . .
N1 C13 H13A 109.5 . .
N1 C13 H13B 109.5 . .
C14 C13 N1 110.5(8) . .
C14 C13 H13A 109.5 . .
C14 C13 H13B 109.5 . .
H13A C13 H13B 108.1 . .
N1 C9 H9A 109.6 . .
N1 C9 H9B 109.6 . .
C10 C9 N1 110.1(7) . .
C10 C9 H9A 109.6 . .
C10 C9 H9B 109.6 . .
H9A C9 H9B 108.1 . .
loop_
_geom_bond_atom_site_label_1
_geom_bond_atom_site_label_2
_geom_bond_distance
_geom_bond_site_symmetry_2
Co1 N1 2.259(9) .
Co1 N2 2.226(10) 1_545
Co1 O1 2.088(8) .
Co1 O4 2.031(9) 1_554
Co1 O2 2.275(7) .
Co1 O1W 2.061(6) .
N1 C11 1.431(16) .
N1 C13 1.526(15) .
N1 C9 1.534(15) .
N2 Co1 2.226(10) 1_565
N2 C12 1.472(16) .
N2 C10 1.539(16) .
N2 C14 1.504(16) .
O1 C7 1.246(11) .
O4 Co1 2.031(9) 1_556
O4 C8 1.195(13) .
O2 C7 1.247(10) .
C6 H6 0.9300 .
C6 C1 1.377(15) .
C6 C5 1.369(15) .
C7 C1 1.510(12) .
C1 C2 1.388(13) .
C3 H3 0.9300 .
C3 C2 1.399(14) .
C3 C4 1.387(14) .
C2 H2 0.9300 .
C5 H5 0.9300 .
C5 C4 1.408(17) .
O1W H1WA 0.8554 .
O1W H1WB 0.8100 .
C4 C8 1.493(14) .
O3 C8 1.246(14) .
C12 H12A 0.9700 .
C12 H12B 0.9700 .
C12 C11 1.513(12) .
C10 H10A 0.9700 .
C10 H10B 0.9700 .
C10 C9 1.505(13) .
C14 H14A 0.9700 .
C14 H14B 0.9700 .
C14 C13 1.510(12) .
C11 H11A 0.9700 .
C11 H11B 0.9700 .
C13 H13A 0.9700 .
C13 H13B 0.9700 .
C9 H9A 0.9700 .
C9 H9B 0.9700 .
loop_
_geom_torsion_atom_site_label_1
_geom_torsion_atom_site_label_2
_geom_torsion_atom_site_label_3
_geom_torsion_atom_site_label_4
_geom_torsion
_geom_torsion_site_symmetry_1
Co1 N1 C11 C12 177.0(6) .
Co1 N1 C13 C14 179.7(6) .
Co1 N1 C9 C10 179.0(6) .
Co1 N2 C12 C11 -179.8(6) 1_565
Co1 N2 C10 C9 175.8(6) 1_565
Co1 N2 C14 C13 179.6(6) 1_565
Co1 O1 C7 O2 0.5(8) .
Co1 O1 C7 C1 -178.5(6) .
Co1 O4 C8 C4 -173.0(9) 1_556
Co1 O4 C8 O3 3(2) 1_556
Co1 O2 C7 O1 -0.5(7) .
Co1 O2 C7 C1 178.5(7) .
N2 C12 C11 N1 1.9(10) .
N2 C10 C9 N1 6.7(10) .
N2 C14 C13 N1 -1.2(10) .
O1 C7 C1 C6 5.5(12) .
O1 C7 C1 C2 -174.5(8) .
O2 C7 C1 C6 -173.5(8) .
O2 C7 C1 C2 6.5(12) .
C6 C1 C2 C3 -2.9(13) .
C6 C5 C4 C3 2.2(15) .
C6 C5 C4 C8 -178.4(9) .
C7 C1 C2 C3 177.0(8) .
C1 C6 C5 C4 -2.6(14) .
C3 C4 C8 O4 178.9(8) .
C3 C4 C8 O3 2.3(13) .
C2 C3 C4 C5 -2.1(14) .
C2 C3 C4 C8 178.5(8) .
C5 C6 C1 C7 -177.0(8) .
C5 C6 C1 C2 2.9(13) .
C5 C4 C8 O4 -0.4(15) .
C5 C4 C8 O3 -177.0(10) .
C4 C3 C2 C1 2.5(13) .
C12 N2 C10 C9 -60.7(11) .
C12 N2 C14 C13 56.6(11) .
C10 N2 C12 C11 56.5(10) .
C10 N2 C14 C13 -56.9(11) .
C14 N2 C12 C11 -58.0(11) .
C14 N2 C10 C9 53.9(11) .
C11 N1 C13 C14 -55.6(11) .
C11 N1 C9 C10 53.0(11) .
C13 N1 C11 C12 55.3(11) .
C13 N1 C9 C10 -64.3(10) .
C9 N1 C11 C12 -58.5(11) .
C9 N1 C13 C14 61.5(10) .
loop_
_smtbx_masks_void_nr
_smtbx_masks_void_average_x
_smtbx_masks_void_average_y
_smtbx_masks_void_average_z
_smtbx_masks_void_volume
_smtbx_masks_void_count_electrons
1 -0.636 0.482 0.496 140.4 59.5
